%nproc=1
%NoSave
%Mem=1900MB
#P OB98/GEN NMR

erre ene a

0 1
  C      -66.732     -13.474      95.593
  O      -65.771     -14.194      94.847
  H      -66.313     -12.498      95.852
  H      -66.966     -14.007      96.518
  H      -67.643     -13.320      95.009
  P      -66.179     -15.613      94.225
  C      -67.661     -16.343      92.244
  O      -67.412     -15.349      93.233
  C      -69.162     -16.451      91.980
  O      -69.814     -17.143      93.068
  C      -69.865     -15.101      91.865
  O      -69.596     -14.499      90.614
  C      -71.309     -15.525      92.085
  O      -71.871     -16.089      90.891
  C      -71.152     -16.609      93.177
  N      -71.409     -16.101      94.525
  C      -72.744     -15.880      94.855
  O      -73.672     -16.089      94.078
  N      -72.970     -15.365      96.106
  C      -72.011     -14.971      96.998
  O      -72.252     -14.318      98.004
  C      -70.626     -15.301      96.625
  C      -70.392     -15.825      95.417
  O      -66.383     -16.717      95.210
  O      -64.976     -15.943      93.216
  H      -64.367     -16.581      93.638
  H      -72.781     -16.371      91.117
  H      -73.934     -15.156      96.337
  H      -69.838     -15.065      97.332
  H      -69.373     -16.046      95.112
  H      -71.843     -17.443      92.988
  H      -71.948     -14.686      92.373
  H      -69.559     -14.445      92.688
  H      -69.307     -17.045      91.065
  H      -67.287     -17.305      92.614
  H      -67.121     -16.081      91.327
  P      -69.905     -12.949      90.359
  C      -68.814     -10.744      91.072
  O      -69.072     -12.094      91.430
  O      -71.354     -12.598      90.275
  O      -69.157     -12.621      88.976
  H      -69.797     -12.212      88.360
  H      -68.256     -10.269      91.851
  H      -69.741     -10.229      90.932
  H      -68.250     -10.718      90.163

 6  7  8  9  10  11  12  13  14  15  16  27  31  32  33  34  35 0
 6-311+G(2d,p)
 ****
 36  37 0
 6-311+G(2d,p)
 ****
 1  2  3  4  5  17  18  19  20  21  22  23  24  25 0
 3-21G
 ****
 26  28  29  30  38  39  40  41  42  43  44  45 0
 3-21G
 ****


