%nproc=1
%NoSave
%Mem=1900MB
#P OB98/GEN NMR

erre ene a

0 1
  C      457.548    -934.324     252.800
  O      458.467    -933.257     252.684
  P      458.642    -932.305     253.974
  C      456.950    -931.075     255.539
  O      457.184    -931.693     254.286
  C      456.265    -929.727     255.320
  O      454.863    -929.913     255.007
  C      456.307    -928.797     256.523
  O      457.556    -928.124     256.586
  C      455.128    -927.876     256.246
  O      455.492    -926.840     255.304
  C      454.105    -928.843     255.633
  N      450.081    -927.822     258.530
  C      450.887    -926.972     257.797
  N      450.541    -925.663     257.806
  N      451.933    -927.362     257.119
  C      452.163    -928.698     257.216
  C      451.446    -929.638     257.918
  C      450.264    -929.205     258.626
  O      449.461    -929.930     259.204
  N      452.004    -930.890     257.789
  C      453.034    -930.711     256.988
  N      453.161    -929.398     256.591
  O      459.469    -931.058     253.396
  O      459.306    -932.952     255.151
  H      456.079    -926.207     255.745
  H      460.419    -931.160     253.608
  H      449.281    -927.464     259.026
  H      453.691    -931.478     256.654
  H      453.506    -928.364     254.836
  H      454.780    -927.360     257.153
  H      449.774    -925.287     258.325
  H      456.124    -929.358     257.454
  H      451.128    -925.018     257.282
  H      456.727    -929.249     254.445
  H      457.902    -930.916     256.052
  H      456.319    -931.735     256.149
  P      457.946    -927.424     257.983
  C      456.894    -925.539     259.423
  O      457.020    -926.130     258.139
  O      459.414    -926.814     257.686
  O      457.982    -928.346     259.157
  H      459.958    -926.889     258.485
  H      456.715    -924.466     259.297
  H      457.798    -925.685     260.022
  H      456.039    -926.000     259.939
  H      457.525    -934.876     251.884
  H      456.573    -933.934     253.007
  H      457.850    -934.970     253.598

 3  4  5  6  7  8  9  10  11  12  23  26  30  31 0
 6-311+G(2d,p)
 ****
 33  35  36  37  38 0
 6-311+G(2d,p)
 ****
 1  2  13  14  15  16  17  18  19  20  21  22  24  25 0
 3-21G
 ****
 27  28  29  32  34  39  40  41  42  43  44  45  46  47  48  49 0
 3-21G
 ****


