%nproc=1
%NoSave
%Mem=1900MB
#P OB98/GEN NMR

erre ene a

0 1
  C       89.346      17.149     317.050
  O       90.706      16.824     317.242
  H       89.207      17.478     316.017
  H       89.057      17.961     317.720
  H       88.716      16.274     317.230
  P       91.134      16.286     318.695
  C       93.167      14.775     318.098
  O       92.720      16.031     318.591
  C       93.103      14.748     316.568
  O       93.579      16.014     316.050
  C       93.955      13.641     315.945
  O       93.222      13.020     314.888
  C       95.173      14.365     315.404
  O       95.776      13.673     314.314
  C       94.599      15.747     315.071
  N       95.631      16.782     315.081
  C       96.338      16.981     313.892
  O       96.089      16.291     312.900
  N       97.343      17.914     313.866
  C       97.657      18.550     314.950
  N       98.677      19.446     314.865
  C       96.971      18.338     316.239
  C       95.976      17.454     316.232
  O       90.516      14.813     318.728
  O       90.717      17.147     319.840
  H       96.540      14.206     314.001
  H       90.519      14.441     319.643
  H       97.281      18.882     317.121
  H       95.417      17.232     317.135
  H       94.122      15.739     314.080
  H       95.924      14.456     316.199
  H       94.247      12.875     316.664
  H       92.054      14.661     316.265
  H       99.131      19.556     313.967
  H       92.529      13.985     318.506
  H       99.026      19.974     315.652
  H       94.199      14.608     318.425
  P       92.609      11.572     315.210
  C       91.070      11.506     313.126
  O       92.159      10.915     313.815
  O       91.227      11.905     315.943
  O       93.506      10.717     316.045
  H       91.327      11.827     316.909
  H       90.885      10.966     312.221
  H       91.305      12.523     312.893
  H       90.197      11.474     313.744

 6  7  8  9  10  11  12  13  14  15  16  26  30  31  32  33  35 0
 6-311+G(2d,p)
 ****
 37  38 0
 6-311+G(2d,p)
 ****
 1  2  3  4  5  17  18  19  20  21  22  23  24  25 0
 3-21G
 ****
 27  28  29  34  36  39  40  41  42  43  44  45  46 0
 3-21G
 ****


