%nproc=1
%NoSave
%Mem=1900MB
#P OB98/GEN NMR

erre ene a

0 1
  C      390.521    -253.702     181.547
  O      390.230    -253.735     182.949
  P      388.818    -254.373     183.379
  C      387.688    -252.027     183.303
  O      387.665    -253.381     182.868
  C      386.396    -251.309     182.910
  O      386.137    -251.435     181.500
  C      385.147    -251.848     183.594
  O      385.018    -251.360     184.919
  C      384.053    -251.287     182.695
  O      383.768    -249.925     183.075
  C      384.712    -251.333     181.304
  N      381.029    -253.180     178.344
  C      381.117    -251.965     179.002
  N      380.085    -251.108     178.816
  N      382.118    -251.617     179.763
  C      383.089    -252.559     179.826
  C      383.117    -253.805     179.232
  C      381.985    -254.181     178.413
  O      381.843    -255.265     177.842
  N      384.277    -254.477     179.522
  C      384.963    -253.634     180.281
  N      384.274    -252.463     180.498
  O      388.795    -254.173     184.968
  O      388.659    -255.806     182.994
  H      383.707    -249.907     184.053
  H      388.239    -254.855     185.385
  H      380.229    -253.398     177.778
  H      385.949    -253.824     180.678
  H      384.523    -250.414     180.734
  H      383.113    -251.842     182.777
  H      379.315    -251.277     178.183
  H      385.128    -252.953     183.558
  H      380.151    -250.193     179.260
  H      386.522    -250.242     183.147
  H      388.540    -251.512     182.860
  H      387.836    -252.008     184.391
  P      384.916    -252.445     186.093
  C      382.328    -252.455     186.013
  O      383.523    -253.200     185.885
  O      384.685    -251.541     187.396
  O      386.125    -253.318     186.238
  H      385.042    -251.979     188.189
  H      382.410    -251.479     185.528
  H      382.095    -252.315     187.071
  H      381.513    -253.016     185.547
  H      391.482    -253.257     181.393
  H      389.775    -253.125     181.041
  H      390.523    -254.699     181.160

 3  4  5  6  7  8  9  10  11  12  23  26  30  31  33  0
 6-311+G(2d,p)
 ****
 35  36  37  38 0
 6-311+G(2d,p)
 ****
 1  2  13  14  15  16  17  18  19  20  21  22  24  25  27  28  29 0
 3-21G
 ****
 32  34  39  40  41  42  43  44  45  46  47  48  49 0
 3-21G
 ****


