%nproc=1
%NoSave
%Mem=1900MB
#P OB98/GEN NMR

erre ene a

0 1
  C        3.380    -214.812      -9.938
  O        3.488    -213.419     -10.173
  P        4.450    -212.874     -11.333
  C        6.556    -213.004      -9.807
  O        5.928    -213.405     -11.003
  C        8.082    -212.944      -9.973
  O        8.558    -214.300     -10.173
  C        8.564    -212.151     -11.183
  O        9.944    -211.826     -10.991
  C        8.431    -213.167     -12.298
  O        9.227    -212.835     -13.431
  C        8.805    -214.495     -11.587
  N        8.009    -215.625     -12.098
  C        8.571    -216.383     -13.123
  O        9.706    -216.191     -13.549
  N        7.747    -217.313     -13.700
  C        6.435    -217.511     -13.382
  O        5.641    -218.113     -14.099
  C        5.978    -216.859     -12.146
  C        6.762    -215.938     -11.580
  O        4.531    -211.304     -11.017
  O        3.975    -213.139     -12.721
  H       10.165    -212.802     -13.123
  H        3.889    -210.819     -11.569
  H        8.109    -217.760     -14.536
  H        4.987    -217.106     -11.772
  H        6.428    -215.399     -10.695
  H        9.867    -214.738     -11.728
  H        7.385    -213.201     -12.628
  H        7.987    -211.243     -11.387
  H        8.535    -212.559      -9.052
  H        6.282    -213.693      -9.003
  H        6.194    -212.013      -9.499
  P       10.376    -210.283     -11.106
  C       10.451    -210.574     -13.658
  O        9.959    -209.804     -12.579
  O       11.777    -209.965     -10.698
  O        9.303    -209.540     -10.171
  H        9.635    -208.657      -9.925
  H        9.741    -210.509     -14.489
  H       10.574    -211.623     -13.377
  H       11.415    -210.168     -13.981
  H        2.698    -214.986      -9.132
  H        4.341    -215.206      -9.683
  H        3.019    -215.296     -10.822

 3  4  5  6  7  8  9  10  11  12  13  23  28  29  30  31  32 0
 6-311+G(2d,p)
 ****
 33  34 0
 6-311+G(2d,p)
 ****
 1  2  14  15  16  17  18  19  20  21  22  24  25  26  27 0
 3-21G
 ****
 35  36  37  38  39  40  41  42  43  44  45 0
 3-21G
 ****


