%nproc=1
%NoSave
%Mem=1900MB
#P OB98/GEN NMR

erre ene a

0 1
  C     -932.939    -532.993    1651.800
  O     -932.211    -531.791    1651.937
  H     -932.396    -533.655    1651.126
  H     -933.929    -532.795    1651.383
  H     -933.042    -533.488    1652.775
  P     -932.825    -530.603    1652.828
  C     -932.335    -528.700    1651.153
  O     -932.036    -529.266    1652.417
  C     -931.794    -527.274    1651.068
  O     -932.550    -526.455    1652.002
  C     -930.306    -527.170    1651.467
  O     -929.506    -526.523    1650.471
  C     -930.348    -526.579    1652.858
  O     -929.189    -525.870    1653.229
  C     -931.632    -525.759    1652.835
  N     -932.221    -525.529    1654.176
  C     -931.604    -524.571    1654.990
  O     -930.628    -523.888    1654.686
  N     -932.182    -524.407    1656.237
  C     -933.251    -525.098    1656.715
  O     -933.719    -524.900    1657.834
  C     -933.843    -526.104    1655.821
  C     -933.291    -526.280    1654.605
  O     -932.886    -530.888    1654.292
  O     -934.285    -530.373    1652.219
  H     -929.450    -525.237    1653.940
  H     -934.956    -530.758    1652.810
  H     -931.756    -523.703    1656.828
  H     -934.677    -526.671    1656.182
  H     -933.696    -527.002    1653.911
  H     -931.439    -524.759    1652.412
  H     -930.463    -527.400    1653.593
  H     -929.865    -528.183    1651.515
  H     -931.966    -526.875    1650.069
  H     -933.427    -528.693    1651.034
  H     -931.889    -529.317    1650.360
  P     -928.514    -527.254    1649.464
  C     -926.565    -525.459    1649.578
  O     -927.562    -526.144    1648.819
  O     -929.122    -528.246    1648.545
  O     -927.486    -528.056    1650.446
  H     -927.224    -528.859    1649.968
  H     -926.050    -524.765    1648.947
  H     -925.867    -526.168    1649.972
  H     -927.030    -524.931    1650.384

 6  7  8  9  10  11  12  13  14  15  16  26  31  32  33  34  35 0
 6-311+G(2d,p)
 ****
 36  37 0
 6-311+G(2d,p)
 ****
 1  2  3  4  5  17  18  19  20  21  22  23  24  25 0
 3-21G
 ****
 27  28  29  30  38  39  40  41  42  43  44  45 0
 3-21G
 ****


