%nproc=1
%NoSave
%Mem=1900MB
#P OB98/GEN NMR

erre ene a

0 1
  C     -605.376     269.852     364.704
  O     -606.294     270.531     365.538
  H     -604.365     270.193     364.945
  H     -605.586     270.081     363.656
  H     -605.431     268.770     364.868
  P     -607.813     270.020     365.527
  C     -607.821     270.517     368.080
  O     -608.508     270.625     366.844
  C     -608.607     271.226     369.180
  O     -608.585     272.661     368.919
  C     -610.081     270.806     369.266
  O     -610.475     270.800     370.640
  C     -610.805     271.925     368.544
  O     -612.171     272.061     368.905
  C     -609.946     273.127     368.948
  N     -610.130     274.274     368.059
  C     -609.766     275.526     368.543
  O     -609.219     275.727     369.626
  N     -610.049     276.584     367.716
  C     -610.667     276.514     366.501
  O     -610.910     277.500     365.815
  C     -611.031     275.166     366.047
  C     -610.755     274.126     366.835
  O     -607.672     268.460     365.866
  O     -608.564     270.263     364.260
  H     -607.569     267.943     365.046
  H     -612.622     271.222     368.650
  H     -609.792     277.495     368.052
  H     -611.535     275.076     365.092
  H     -611.034     273.114     366.541
  H     -610.169     273.426     369.978
  H     -610.760     271.760     367.459
  H     -610.294     269.823     368.819
  H     -608.102     271.067     370.141
  H     -606.837     270.993     367.989
  H     -607.679     269.460     368.326
  P     -611.362     269.566     371.150
  C     -610.262     270.142     373.459
  O     -611.410     269.702     372.747
  O     -610.373     268.343     370.885
  O     -612.687     269.478     370.468
  H     -609.436     268.568     371.026
  H     -610.481     270.170     374.506
  H     -609.989     271.121     373.125
  H     -609.452     269.466     373.282

 6  7  8  9  10  11  12  13  14  15  16  27  31  32  33  34  35 0
 6-311+G(2d,p)
 ****
 36  37 0
 6-311+G(2d,p)
 ****
 1  2  3  4  5  17  18  19  20  21  22  23  24  25 0
 3-21G
 ****
 26  28  29  30  38  39  40  41  42  43  44  45 0
 3-21G
 ****


