%nproc=1
%NoSave
%Mem=1900MB
#P OB98/GEN NMR

erre ene a

0 1
  C      753.144    -242.844    -351.608
  O      753.609    -244.003    -352.271
  P      754.071    -243.950    -353.820
  C      752.471    -245.893    -354.473
  O      752.805    -244.512    -354.642
  C      751.313    -246.246    -355.385
  O      750.083    -245.711    -354.850
  C      751.421    -245.716    -356.814
  O      752.349    -246.454    -357.577
  C      749.966    -245.799    -357.266
  O      749.639    -247.137    -357.651
  C      749.205    -245.426    -355.977
  N      748.768    -244.029    -355.963
  C      747.589    -243.735    -356.672
  O      746.973    -244.613    -357.271
  N      747.120    -242.431    -356.661
  C      747.780    -241.523    -356.024
  N      747.232    -240.273    -355.990
  C      749.055    -241.771    -355.310
  C      749.486    -243.033    -355.316
  O      755.355    -244.638    -354.108
  O      754.058    -242.398    -354.182
  H      750.253    -247.385    -358.373
  H      754.914    -241.935    -353.994
  H      749.556    -240.970    -354.800
  H      750.381    -243.304    -354.801
  H      748.338    -246.069    -355.856
  H      749.747    -245.129    -358.106
  H      751.745    -244.668    -356.789
  H      751.216    -247.344    -355.414
  H      746.283    -240.186    -356.348
  H      752.176    -246.053    -353.425
  H      747.515    -239.591    -355.297
  H      753.367    -246.500    -354.690
  P      752.760    -245.900    -359.014
  C      752.336    -248.149    -360.247
  O      751.960    -246.802    -360.081
  O      754.279    -246.359    -359.172
  O      752.603    -244.419    -359.171
  H      754.879    -245.617    -358.993
  H      751.566    -248.665    -360.819
  H      752.455    -248.638    -359.269
  H      753.282    -248.189    -360.815
  H      752.890    -243.089    -350.598
  H      752.278    -242.468    -352.112
  H      753.911    -242.098    -351.612

 3  4  5  6  7  8  9  10  11  12  13  23  27  28  29  30  32 0
 6-311+G(2d,p)
 ****
 34  35 0
 6-311+G(2d,p)
 ****
 1  2  14  15  16  17  18  19  20  21  22  24  25  26 0
 3-21G
 ****
 31  33  36  37  38  39  40  41  42  43  44  45  46 0
 3-21G
 ****


