%nproc=1
%NoSave
%Mem=1900MB
#P OB98/GEN NMR

erre ene a

0 1
  C       15.708     -73.540       5.302
  O       15.363     -74.586       6.198
  P       16.513     -75.629       6.604
  C       15.389     -77.305       4.987
  O       16.602     -76.697       5.409
  C       15.582     -78.046       3.669
  O       16.062     -77.108       2.668
  C       16.590     -79.204       3.737
  O       16.064     -80.331       3.023
  C       17.783     -78.682       2.956
  O       18.566     -79.736       2.407
  C       17.076     -77.807       1.921
  N       20.093     -77.204      -2.083
  C       19.172     -78.196      -1.814
  N       19.086     -79.198      -2.717
  N       18.406     -78.210      -0.756
  C       18.577     -77.129       0.044
  C       19.450     -76.078      -0.119
  C       20.334     -76.108      -1.264
  O       21.233     -75.307      -1.511
  N       19.322     -75.161       0.893
  C       18.378     -75.656       1.669
  N       17.929     -76.874       1.222
  O       15.840     -76.451       7.801
  O       17.805     -75.020       7.026
  H       18.948     -80.229       3.157
  H       16.407     -76.402       8.594
  H       20.670     -77.252      -2.904
  H       18.013     -75.190       2.575
  H       16.577     -78.431       1.169
  H       18.417     -78.087       3.623
  H       19.620     -79.232      -3.570
  H       16.861     -79.505       4.754
  H       18.399     -79.923      -2.549
  H       14.604     -78.406       3.325
  H       14.626     -76.532       4.856
  H       15.054     -78.001       5.764
  P       16.395     -81.775       3.646
  C       17.978     -82.558       1.732
  O       17.841     -82.169       3.085
  O       15.401     -82.752       2.861
  O       16.222     -81.850       5.126
  H       15.224     -83.553       3.389
  H       17.062     -82.386       1.158
  H       18.226     -83.621       1.691
  H       18.791     -81.985       1.279
  H       14.850     -72.927       5.123
  H       16.046     -73.959       4.378
  H       16.488     -72.946       5.731

 3  4  5  6  7  8  9  10  11  12  23  26  30  31  33  0
 6-311+G(2d,p)
 ****
 35  36  37  38 0
 6-311+G(2d,p)
 ****
 1  2  13  14  15  16  17  18  19  20  21  22  24  25  27  28  29 0
 3-21G
 ****
 32  34  39  40  41  42  43  44  45  46  47  48  49 0
 3-21G
 ****


