%nproc=1
%NoSave
%Mem=1900MB
#P OB98/GEN NMR

erre ene a

0 1
  C      108.955      47.777    -138.512
  O      107.636      47.844    -139.034
  P      107.471      48.022    -140.619
  C      107.477      45.450    -140.891
  O      108.054      46.684    -141.292
  C      106.723      44.803    -142.046
  O      106.258      43.489    -141.628
  C      105.494      45.595    -142.524
  O      105.466      45.603    -143.959
  C      104.321      44.758    -142.044
  O      103.158      44.967    -142.835
  C      104.922      43.355    -142.150
  N      104.692      38.395    -141.231
  C      105.712      39.144    -141.782
  N      106.802      38.461    -142.196
  N      105.671      40.442    -141.918
  C      104.533      40.995    -141.430
  C      103.455      40.361    -140.855
  C      103.491      38.918    -140.766
  O      102.583      38.190    -140.372
  N      102.494      41.261    -140.468
  C      102.986      42.438    -140.810
  N      104.199      42.323    -141.443
  O      108.566      49.134    -140.969
  O      106.115      48.438    -141.075
  H      102.948      45.920    -142.788
  H      108.140      49.888    -141.422
  H      104.768      37.396    -141.167
  H      102.489      43.387    -140.654
  H      104.997      43.049    -143.203
  H      104.093      45.022    -141.006
  H      106.915      37.466    -142.088
  H      105.450      46.622    -142.148
  H      107.571      38.994    -142.581
  H      107.425      44.642    -142.874
  H      106.780      45.630    -140.065
  H      108.272      44.784    -140.541
  P      104.551      46.736    -144.637
  C      106.774      47.569    -145.707
  O      105.554      47.902    -145.074
  O      103.755      47.358    -143.399
  O      103.641      46.219    -145.702
  H      102.918      47.763    -143.697
  H      106.823      46.509    -145.975
  H      107.599      47.797    -145.028
  H      106.880      48.169    -146.615
  H      108.912      47.659    -137.449
  H      109.479      48.679    -138.750
  H      109.467      46.943    -138.944

 3  4  5  6  7  8  9  10  11  12  23  26  30  31  33  0
 6-311+G(2d,p)
 ****
 35  36  37  38 0
 6-311+G(2d,p)
 ****
 1  2  13  14  15  16  17  18  19  20  21  22  24  25  27  28  29 0
 3-21G
 ****
 32  34  39  40  41  42  43  44  45  46  47  48  49 0
 3-21G
 ****


