%nproc=1
%NoSave
%Mem=1900MB
#P OB98/GEN NMR

erre ene a

0 1
  C     -786.487    -948.482     628.477
  O     -787.544    -949.186     629.128
  P     -788.950    -949.461     628.393
  C     -790.257    -948.634     630.439
  O     -789.981    -949.713     629.561
  C     -790.928    -949.149     631.716
  O     -792.142    -949.854     631.357
  C     -790.090    -950.102     632.548
  O     -789.090    -949.399     633.271
  C     -791.170    -950.785     633.379
  O     -791.560    -949.966     634.483
  C     -792.347    -950.892     632.382
  N     -792.463    -952.196     631.757
  C     -793.508    -952.999     632.183
  O     -794.348    -952.589     633.037
  N     -793.702    -954.243     631.619
  C     -792.872    -954.687     630.744
  N     -793.101    -955.899     630.163
  C     -791.672    -953.891     630.311
  C     -791.541    -952.690     630.843
  O     -788.900    -950.517     627.344
  O     -789.376    -948.030     627.853
  H     -791.895    -949.130     634.120
  H     -789.021    -947.829     626.941
  H     -790.997    -954.322     629.554
  H     -790.731    -952.034     630.547
  H     -793.301    -950.652     632.874
  H     -790.850    -951.759     633.777
  H     -789.610    -950.848     631.875
  H     -791.251    -948.264     632.330
  H     -794.010    -956.293     630.365
  H     -790.948    -947.932     629.914
  H     -792.689    -956.138     629.278
  H     -789.342    -948.097     630.676
  P     -787.579    -949.857     633.047
  C     -786.673    -949.648     635.481
  O     -786.714    -949.085     634.175
  O     -787.163    -949.102     631.668
  O     -787.360    -951.336     632.959
  H     -787.205    -949.740     630.922
  H     -785.872    -949.170     636.052
  H     -786.466    -950.727     635.422
  H     -787.646    -949.479     635.982
  H     -785.648    -948.409     629.137
  H     -786.821    -947.500     628.215
  H     -786.200    -949.009     627.591

 3  4  5  6  7  8  9  10  11  12  13  23  27  28  29  30  32 0
 6-311+G(2d,p)
 ****
 34  35 0
 6-311+G(2d,p)
 ****
 1  2  14  15  16  17  18  19  20  21  22  24  25  26 0
 3-21G
 ****
 31  33  36  37  38  39  40  41  42  43  44  45  46 0
 3-21G
 ****


