%nproc=1
%NoSave
%Mem=1900MB
#P OB98/GEN NMR

erre ene a

0 1
  C      262.520    -237.956     -30.311
  O      261.799    -237.629     -29.121
  P      262.655    -237.226     -27.827
  C      262.470    -239.521     -26.606
  O      263.316    -238.556     -27.221
  C      263.073    -240.921     -26.749
  O      264.000    -241.196     -25.682
  C      262.036    -242.029     -26.675
  O      261.344    -242.144     -27.903
  C      262.896    -243.243     -26.337
  O      263.369    -243.909     -27.521
  C      264.075    -242.629     -25.544
  N      264.084    -243.025     -24.147
  C      264.395    -244.368     -23.896
  O      264.623    -245.137     -24.828
  N      264.419    -244.801     -22.599
  C      264.126    -243.977     -21.635
  N      264.159    -244.466     -20.366
  C      263.762    -242.564     -21.862
  C      263.757    -242.159     -23.130
  O      261.537    -236.848     -26.746
  O      263.610    -236.097     -28.056
  H      264.003    -244.585     -27.205
  H      261.861    -236.141     -26.155
  H      263.517    -241.918     -21.029
  H      263.501    -241.136     -23.391
  H      265.033    -242.933     -25.991
  H      262.331    -243.986     -25.765
  H      261.336    -241.834     -25.856
  H      263.614    -240.972     -27.703
  H      264.410    -245.440     -20.249
  H      261.478    -239.497     -27.066
  H      263.942    -243.915     -19.544
  H      262.336    -239.255     -25.551
  P      259.800    -241.721     -27.934
  C      259.353    -244.231     -27.624
  O      259.024    -242.918     -27.202
  O      259.414    -241.960     -29.469
  O      259.464    -240.340     -27.481
  H      258.507    -241.644     -29.638
  H      258.922    -244.943     -26.921
  H      260.440    -244.367     -27.642
  H      258.937    -244.415     -28.618
  H      261.829    -238.204     -31.090
  H      263.159    -238.793     -30.122
  H      263.111    -237.116     -30.612

 3  4  5  6  7  8  9  10  11  12  13  21  23  27  28  29  30  32 0
 6-311+G(2d,p)
 ****
 34  35 0
 6-311+G(2d,p)
 ****
 1  2  14  15  16  17  18  19  20  22  24  25  26 0
 3-21G
 ****
 31  33  36  37  38  39  40  41  42  43  44  45  46 0
 3-21G
 ****


