%nproc=1
%NoSave
%Mem=1900MB
#P OB98/GEN NMR

erre ene a

0 1
  C      423.708     -20.781      47.759
  O      424.351     -21.030      46.527
  H      424.179     -21.391      48.532
  H      422.654     -21.063      47.686
  H      423.791     -19.727      48.037
  P      424.031     -20.026      45.319
  C      421.723     -20.951      44.591
  O      422.430     -19.897      45.225
  C      420.265     -20.547      44.361
  O      419.589     -21.626      43.662
  C      419.488     -20.268      45.652
  O      418.606     -19.162      45.432
  C      418.676     -21.535      45.858
  O      417.497     -21.312      46.628
  C      418.409     -21.958      44.419
  N      414.695     -25.358      44.213
  C      414.643     -23.978      44.205
  N      413.417     -23.417      44.141
  N      415.702     -23.212      44.258
  C      416.864     -23.911      44.282
  C      417.048     -25.275      44.300
  C      415.865     -26.109      44.269
  O      415.844     -27.335      44.297
  N      418.379     -25.596      44.360
  C      418.998     -24.429      44.380
  N      418.124     -23.379      44.328
  O      424.416     -20.882      44.022
  O      424.768     -18.729      45.353
  H      417.004     -22.159      46.664
  H      425.167     -20.466      43.561
  H      413.847     -25.898      44.187
  H      420.068     -24.290      44.441
  H      417.556     -21.428      43.977
  H      419.287     -22.282      46.381
  H      412.564     -23.944      44.051
  H      420.135     -20.051      46.504
  H      413.355     -22.405      44.098
  H      420.245     -19.676      43.694
  H      421.757     -21.837      45.232
  H      422.199     -21.184      43.634
  P      418.841     -17.854      46.335
  C      417.739     -18.556      48.571
  O      418.950     -18.315      47.870
  O      417.428     -17.105      46.264
  O      419.947     -16.978      45.850
  H      417.501     -16.309      45.707
  H      417.961     -18.854      49.574
  H      417.192     -19.334      48.081
  H      417.152     -17.662      48.586

 6  7  8  9  10  11  12  13  14  15  26  29  33  34 0
 6-311+G(2d,p)
 ****
 36  38  39  40  41 0
 6-311+G(2d,p)
 ****
 1  2  3  4  5  16  17  18  19  20  21  22  23  24  25 0
 3-21G
 ****
 27  28  30  31  32  35  37  42  43  44  45  46  47 0
 3-21G
 ****
 48  49 0
 3-21G
 ****


