%nproc=1
%NoSave
%Mem=1900MB
#P OB98/GEN NMR

erre ene a

0 1
  C      241.602     396.690      83.541
  O      242.372     397.555      84.350
  H      242.221     396.346      82.707
  H      240.743     397.231      83.134
  H      241.259     395.820      84.106
  P      241.808     397.982      85.786
  C      240.553     400.080      84.951
  O      240.440     398.778      85.508
  C      239.910     401.112      85.883
  O      238.561     400.653      86.206
  C      240.674     401.292      87.212
  O      240.553     402.659      87.627
  C      239.878     400.396      88.143
  O      240.089     400.720      89.497
  C      238.456     400.641      87.642
  N      237.533     399.624      88.126
  C      237.190     399.674      89.473
  O      237.627     400.514      90.259
  N      236.372     398.674      89.923
  C      235.965     397.589      89.197
  O      235.297     396.678      89.675
  C      236.402     397.560      87.791
  C      237.148     398.565      87.330
  O      242.770     398.696      86.683
  O      241.276     396.616      86.428
  H      241.017     400.555      89.739
  H      241.219     396.695      87.399
  H      236.103     398.700      90.900
  H      236.109     396.706      87.193
  H      237.504     398.566      86.304
  H      238.095     401.633      87.958
  H      240.167     399.350      88.004
  H      241.726     401.011      87.147
  H      239.814     402.065      85.354
  H      240.041     400.087      83.984
  H      241.613     400.320      84.794
  P      241.675     403.755      87.268
  C      243.244     403.707      89.301
  O      243.087     403.355      87.934
  O      241.254     405.164      87.532
  O      241.938     403.548      85.701
  H      241.956     404.421      85.259
  H      244.210     403.397      89.640
  H      242.489     403.221      89.883
  H      243.151     404.767      89.409

 6  7  8  9  10  11  12  13  14  15  16  26  31  32  33  34  35 0
 6-311+G(2d,p)
 ****
 36  37 0
 6-311+G(2d,p)
 ****
 1  2  3  4  5  17  18  19  20  21  22  23  24  25 0
 3-21G
 ****
 27  28  29  30  38  39  40  41  42  43  44  45 0
 3-21G
 ****


