%nproc=1
%NoSave
%Mem=1900MB
#P OB98/GEN NMR

erre ene a

0 1
  C      237.978    -241.000      44.584
  O      236.821    -240.601      43.828
  P      236.613    -241.196      42.344
  C      234.057    -241.641      42.620
  O      235.083    -241.006      41.874
  C      232.701    -241.553      41.885
  O      232.190    -240.193      41.950
  C      232.756    -241.937      40.401
  O      231.496    -242.536      40.067
  C      232.888    -240.588      39.712
  O      232.521    -240.612      38.339
  C      231.963    -239.742      40.603
  N      232.168    -238.296      40.483
  C      231.274    -237.573      39.696
  O      230.355    -238.071      39.047
  N      231.486    -236.215      39.650
  C      232.504    -235.539      40.266
  O      232.655    -234.326      40.158
  C      233.435    -236.354      41.054
  C      233.225    -237.676      41.129
  O      236.696    -242.777      42.605
  O      237.634    -240.783      41.338
  H      232.917    -241.416      37.953
  H      237.273    -243.187      41.936
  H      230.838    -235.672      39.098
  H      234.247    -235.856      41.559
  H      233.889    -238.299      41.713
  H      230.919    -239.977      40.364
  H      233.929    -240.248      39.769
  H      233.576    -242.620      40.166
  H      231.983    -242.187      42.422
  H      233.964    -241.167      43.597
  H      234.327    -242.695      42.770
  P      231.486    -243.806      39.081
  C      229.849    -245.101      40.666
  O      230.136    -244.619      39.367
  O      232.615    -244.718      39.773
  O      231.779    -243.482      37.649
  H      232.518    -244.764      40.743
  H      230.123    -244.373      41.438
  H      230.400    -246.031      40.838
  H      228.778    -245.306      40.734
  H      237.964    -240.518      45.539
  H      238.864    -240.718      44.055
  H      237.967    -242.061      44.720

 3  4  5  6  7  8  9  10  11  12  13  23  28  29  30  31  32 0
 6-311+G(2d,p)
 ****
 33  34 0
 6-311+G(2d,p)
 ****
 1  2  14  15  16  17  18  19  20  21  22  24  25  26 0
 3-21G
 ****
 27  35  36  37  38  39  40  41  42  43  44  45 0
 3-21G
 ****


