%nproc=1
%NoSave
%Mem=1900MB
#P OB98/GEN NMR

erre ene a

0 1
  C     1196.976     733.553    -891.920
  O     1196.277     732.446    -892.490
  P     1194.742     732.276    -892.130
  C     1193.862     732.880    -894.530
  O     1193.871     733.181    -893.160
  C     1193.116     733.981    -895.340
  O     1191.704     733.849    -895.080
  C     1193.468     735.440    -894.970
  O     1193.069     736.285    -896.030
  C     1192.586     735.654    -893.750
  O     1192.435     737.082    -893.490
  C     1191.318     734.881    -894.120
  N     1190.609     734.290    -892.980
  C     1190.110     735.132    -891.970
  O     1190.238     736.345    -891.980
  N     1189.522     734.532    -890.920
  C     1189.285     733.174    -890.750
  O     1188.850     732.661    -889.740
  C     1189.699     732.334    -891.890
  C     1190.326     732.897    -892.960
  O     1194.588     733.074    -890.710
  O     1194.275     730.860    -892.030
  H     1192.177     737.466    -894.370
  H     1194.520     732.434    -889.980
  H     1189.218     735.126    -890.130
  H     1189.499     731.299    -891.870
  H     1190.653     732.302    -893.790
  H     1190.581     735.562    -894.630
  H     1193.057     735.201    -892.870
  H     1194.547     735.581    -894.750
  H     1193.269     733.811    -896.410
  H     1193.406     731.915    -894.710
  H     1194.896     732.798    -894.910
  P     1194.121     737.424    -896.540
  C     1193.881     737.098    -899.100
  O     1194.668     736.917    -897.930
  O     1195.095     737.906    -895.520
  O     1193.107     738.607    -896.980
  H     1193.584     739.449    -897.020
  H     1194.555     737.219    -900.000
  H     1193.251     738.004    -899.000
  H     1193.231     736.239    -899.240
  H     1197.994     733.539    -892.249
  H     1196.945     733.483    -890.853
  H     1196.513     734.466    -892.231

 3  4  5  6  7  8  9  10  11  12  13  23  28  29  30  31  32 0
 6-311+G(2d,p)
 ****
 33  34 0
 6-311+G(2d,p)
 ****
 1  2  14  15  16  17  18  19  20  21  22  24  25  26  27 0
 3-21G
 ****
 35  36  37  38  39  40  41  42  43  44  45 0
 3-21G
 ****


