%nproc=1
%NoSave
%Mem=1900MB
#P OB98/GEN NMR

erre ene a

0 1
  C       15.623    -555.622     -81.757
  O       16.965    -555.170     -81.769
  H       15.143    -555.268     -80.844
  H       15.599    -556.718     -81.763
  H       15.068    -555.231     -82.616
  P       17.799    -555.270     -83.129
  C       18.423    -552.811     -83.601
  O       18.864    -554.072     -83.114
  C       19.616    -551.923     -83.974
  O       20.252    -551.446     -82.754
  C       20.675    -552.708     -84.754
  O       21.432    -551.871     -85.629
  C       21.591    -553.220     -83.652
  O       22.905    -553.531     -84.110
  C       21.551    -552.059     -82.662
  N       25.028    -553.269     -79.130
  C       25.192    -553.106     -80.494
  N       26.445    -553.274     -80.978
  N       24.210    -552.805     -81.310
  C       22.998    -552.741     -80.697
  C       22.716    -552.919     -79.364
  C       23.813    -553.196     -78.465
  O       23.721    -553.386     -77.257
  N       21.375    -552.778     -79.116
  C       20.838    -552.528     -80.292
  N       21.796    -552.466     -81.284
  O       16.759    -554.795     -84.249
  O       18.366    -556.622     -83.443
  H       23.423    -553.829     -83.337
  H       17.017    -555.130     -85.121
  H       25.827    -553.465     -78.552
  H       19.791    -552.356     -80.485
  H       22.292    -551.302     -82.909
  H       21.161    -554.136     -83.245
  H       27.177    -553.691     -80.423
  H       20.259    -553.533     -85.325
  H       26.519    -553.460     -81.988
  H       19.269    -551.034     -84.515
  H       17.836    -552.347     -82.804
  H       17.759    -552.941     -84.459
  P       21.666    -552.361     -87.137
  C       19.247    -552.743     -88.147
  O       20.408    -551.952     -88.039
  O       21.563    -553.944     -87.042
  O       22.969    -551.908     -87.734
  H       22.423    -554.354     -87.267
  H       18.550    -552.265     -88.803
  H       18.804    -552.861     -87.180
  H       19.505    -553.704     -88.540

 6  7  8  9  10  11  12  13  14  15  26  29  33  34 0
 6-311+G(2d,p)
 ****
 36  38  39  40  41 0
 6-311+G(2d,p)
 ****
 1  2  3  4  5  16  17  18  19  20  21  22  23  24  25 0
 3-21G
 ****
 27  28  30  31  32  35  37  42  43  44  45  46  47 0
 3-21G
 ****
 48  49 0
 3-21G
 ****


