%nproc=1
%NoSave
%Mem=1900MB
#P OB98/GEN NMR

erre ene a

0 1
  C      110.057    -107.926     360.413
  O      108.835    -108.586     360.154
  H      110.253    -107.220     359.601
  H      110.877    -108.650     360.459
  H      109.996    -107.373     361.354
  P      108.377    -109.697     361.219
  C      105.860    -109.093     361.229
  O      106.856    -110.023     360.828
  C      104.615    -109.225     360.353
  O      104.901    -108.796     359.011
  C      104.078    -110.649     360.240
  O      103.256    -110.960     361.353
  C      103.264    -110.548     358.958
  O      101.980    -109.959     359.246
  C      104.101    -109.590     358.099
  N      104.388    -112.147     353.651
  C      103.334    -111.812     354.426
  N      103.334    -111.181     355.621
  C      104.587    -110.879     356.002
  C      105.760    -111.165     355.316
  C      105.626    -111.823     354.084
  N      106.707    -112.170     353.296
  N      106.860    -110.711     356.016
  C      106.354    -110.111     357.075
  N      104.986    -110.218     357.131
  O      108.633    -109.366     362.650
  O      109.159    -110.984     360.669
  H      101.542    -110.542     359.890
  H      109.128    -111.014     359.696
  H      102.355    -112.088     354.036
  H      106.928    -109.567     357.818
  H      103.468    -108.896     357.533
  H      103.069    -111.524     358.506
  H      104.885    -111.381     360.097
  H      103.846    -108.552     360.755
  H      106.249    -108.069     361.164
  H      106.535    -112.805     352.534
  H      107.633    -112.041     353.683
  H      105.611    -109.303     362.277
  P      103.085    -112.472     361.859
  C      102.469    -111.747     364.249
  O      102.019    -112.389     363.061
  O      104.358    -113.176     362.166
  O      102.244    -113.185     360.698
  H      102.314    -114.155     360.774
  H      101.683    -111.750     364.975
  H      102.745    -110.738     364.026
  H      103.317    -112.271     364.639

 6  7  8  9  10  11  12  13  14  15  25  28  32  33  34  35 0
 6-311+G(2d,p)
 ****
 36  39  40 0
 6-311+G(2d,p)
 ****
 1  2  3  4  5  16  17  18  19  20  21  22  23  24 0
 3-21G
 ****
 26  27  29  30  31  37  38  41  42  43  44  45  46  47 0
 3-21G
 ****
 48 0
 3-21G
 ****


