%nproc=1
%NoSave
%Mem=1900MB
#P OB98/GEN NMR

erre ene a

0 1
  C     -257.576     143.411     -12.637
  O     -257.872     144.727     -12.212
  H     -257.533     143.369     -13.730
  H     -256.601     143.121     -12.235
  H     -258.334     142.715     -12.264
  P     -259.267     145.342     -12.720
  C     -261.082     145.392     -10.871
  O     -259.954     146.042     -11.445
  C     -261.860     146.371      -9.992
  O     -261.145     146.512      -8.732
  C     -262.030     147.770     -10.609
  O     -263.403     148.184     -10.552
  C     -261.212     148.677      -9.704
  O     -261.782     149.974      -9.558
  C     -261.198     147.907      -8.388
  N     -259.520     151.264      -4.937
  C     -260.773     150.910      -5.301
  N     -261.153     149.939      -6.157
  C     -260.081     149.278      -6.634
  C     -258.749     149.512      -6.332
  C     -258.478     150.573      -5.453
  N     -257.202     150.972      -5.122
  N     -257.929     148.632      -7.022
  C     -258.752     147.911      -7.755
  N     -260.061     148.274      -7.569
  O     -260.170     144.039     -12.969
  O     -259.165     146.180     -13.946
  H     -262.533     149.894      -8.943
  H     -260.422     144.008     -13.911
  H     -261.578     151.488      -4.852
  H     -258.456     147.150      -8.472
  H     -262.112     148.074      -7.803
  H     -260.202     148.780     -10.120
  H     -261.682     147.821     -11.645
  H     -262.839     145.933      -9.759
  H     -260.746     144.549     -10.257
  H     -257.096     151.812      -4.582
  H     -256.422     150.533      -5.594
  H     -261.721     145.010     -11.674
  P     -263.948     149.015     -11.820
  C     -263.603     147.547     -13.937
  O     -264.495     147.966     -12.906
  O     -262.609     149.598     -12.475
  O     -264.896     150.107     -11.453
  H     -262.663     150.572     -12.538
  H     -264.103     146.854     -14.581
  H     -262.748     147.075     -13.499
  H     -263.289     148.398     -14.505

 6  7  8  9  10  11  12  13  14  15  25  28  32  33  34  35 0
 6-311+G(2d,p)
 ****
 36  39  40 0
 6-311+G(2d,p)
 ****
 1  2  3  4  5  16  17  18  19  20  21  22  23  24 0
 3-21G
 ****
 26  27  29  30  31  37  38  41  42  43  44  45  46  47  48 0
 3-21G
 ****


