%nproc=1
%NoSave
%Mem=1900MB
#P OB98/GEN NMR

erre ene a

0 1
  C      194.937    -274.552    -132.461
  O      194.718    -275.211    -131.231
  H      194.169    -273.784    -132.586
  H      194.857    -275.270    -133.282
  H      195.920    -274.072    -132.488
  P      195.916    -276.055    -130.587
  C      197.341    -278.111    -131.230
  O      196.231    -277.288    -131.569
  C      197.737    -279.036    -132.381
  O      198.117    -278.263    -133.537
  C      198.947    -279.907    -132.034
  O      198.656    -281.093    -131.321
  C      199.508    -280.224    -133.418
  O      198.845    -281.364    -133.991
  C      199.180    -278.957    -134.217
  N      203.594    -278.047    -136.625
  C      202.759    -279.140    -136.726
  N      203.183    -280.146    -137.527
  N      201.624    -279.245    -136.082
  C      201.375    -278.208    -135.249
  C      202.136    -277.077    -135.052
  C      203.362    -276.947    -135.812
  O      204.144    -276.000    -135.751
  N      201.562    -276.238    -134.126
  C      200.501    -276.898    -133.709
  N      200.330    -278.087    -134.379
  O      195.231    -276.782    -129.333
  O      197.109    -275.255    -130.163
  H      197.900    -281.145    -134.103
  H      195.902    -276.972    -128.651
  H      204.441    -278.009    -137.165
  H      199.809    -276.549    -132.946
  H      198.813    -279.199    -135.219
  H      200.574    -280.464    -133.377
  H      204.098    -280.161    -137.944
  H      199.694    -279.320    -131.487
  H      202.740    -281.059    -137.419
  H      196.871    -279.646    -132.670
  H      197.038    -278.699    -130.362
  H      198.193    -277.494    -130.923
  P      199.848    -282.043    -130.822
  C      201.570    -283.612    -131.983
  O      200.524    -282.674    -132.130
  O      199.068    -283.273    -130.161
  O      200.793    -281.405    -129.863
  H      198.999    -283.152    -129.196
  H      201.903    -283.929    -132.949
  H      201.215    -284.458    -131.433
  H      202.384    -283.159    -131.456

 6  7  8  9  10  11  12  13  14  15  26  29  33  34 0
 6-311+G(2d,p)
 ****
 36  38  39  40  41 0
 6-311+G(2d,p)
 ****
 1  2  3  4  5  16  17  18  19  20  21  22  23  24  25 0
 3-21G
 ****
 27  28  30  31  32  35  37  42  43  44  45  46  47 0
 3-21G
 ****
 48  49 0
 3-21G
 ****


