%nproc=1
%NoSave
%Mem=1900MB
#P OB98/GEN NMR

erre ene a

0 1
  C     -349.476     166.322     -99.799
  O     -349.202     167.579    -100.394
  P     -349.799     168.885     -99.683
  C     -351.816     170.473    -100.140
  O     -351.181     169.229    -100.425
  C     -352.498     171.029    -101.394
  O     -351.488     171.242    -102.425
  C     -353.589     170.126    -101.996
  O     -354.598     171.002    -102.535
  C     -352.828     169.413    -103.099
  O     -353.669     168.798    -104.058
  C     -351.960     170.551    -103.612
  N     -350.307     169.562    -108.358
  C     -351.467     170.094    -107.899
  N     -351.829     170.334    -106.618
  C     -350.842     169.977    -105.775
  C     -349.623     169.415    -106.095
  C     -349.354     169.201    -107.457
  N     -348.186     168.659    -107.930
  N     -348.888     169.157    -104.947
  C     -349.655     169.555    -103.963
  N     -350.838     170.088    -104.407
  O     -348.831     170.056    -100.202
  O     -349.858     168.827     -98.187
  H     -353.135     168.285    -104.695
  H     -348.648     170.696     -99.486
  H     -352.208     170.358    -108.664
  H     -349.407     169.499    -102.904
  H     -352.527     171.283    -104.215
  H     -352.231     168.619    -102.661
  H     -354.041     169.455    -101.247
  H     -352.905     172.013    -101.142
  H     -351.066     171.183     -99.806
  H     -348.173     168.365    -108.901
  H     -347.584     168.207    -107.242
  H     -352.536     170.324     -99.325
  P     -356.110     170.450    -102.656
  C     -357.389     169.440    -104.642
  O     -356.123     169.685    -104.068
  O     -356.882     171.797    -103.005
  O     -356.630     169.696    -101.467
  H     -356.471     172.280    -103.736
  H     -357.255     169.013    -105.640
  H     -357.956     170.381    -104.739
  H     -357.952     168.731    -104.022
  H     -349.018     165.546    -100.377
  H     -350.534     166.166     -99.767
  H     -349.083     166.305     -98.804

 3  4  5  6  7  8  9  10  11  12  22  25  29  30  31  32 0
 6-311+G(2d,p)
 ****
 33  36  37 0
 6-311+G(2d,p)
 ****
 1  2  13  14  15  16  17  18  19  20  21  23  24  26 0
 3-21G
 ****
 27  28  34  35  38  39  40  41  42  43  44  45  46  47  48 0
 3-21G
 ****


