%nproc=1
%NoSave
%Mem=1900MB
#P OB98/GEN NMR

erre ene a

0 1
  C     -129.458    -203.608      27.658
  O     -128.100    -203.503      28.047
  P     -127.127    -204.768      27.982
  C     -126.574    -204.686      30.548
  O     -127.045    -205.416      29.436
  C     -126.279    -205.660      31.696
  O     -127.496    -206.295      32.134
  C     -125.305    -206.755      31.265
  O     -123.975    -206.403      31.604
  C     -125.819    -207.970      32.015
  O     -125.344    -207.961      33.373
  C     -127.349    -207.732      31.979
  N     -128.088    -208.140      30.770
  C     -127.917    -209.423      30.258
  O     -127.198    -210.271      30.774
  N     -128.595    -209.695      29.095
  C     -129.438    -208.841      28.446
  O     -129.843    -209.002      27.298
  C     -129.786    -207.617      29.175
  C     -129.089    -207.317      30.271
  O     -125.683    -204.103      27.790
  O     -127.433    -205.758      26.907
  H     -125.477    -207.060      33.717
  H     -125.416    -204.122      26.854
  H     -128.366    -210.575      28.644
  H     -130.553    -206.976      28.767
  H     -129.300    -206.395      30.809
  H     -127.840    -208.213      32.834
  H     -125.452    -208.894      31.569
  H     -125.398    -206.944      30.186
  H     -125.867    -205.097      32.543
  H     -127.323    -203.948      30.857
  H     -125.669    -204.134      30.278
  P     -122.772    -207.385      31.217
  C     -122.096    -207.566      33.683
  O     -122.512    -208.270      32.530
  O     -121.564    -206.729      30.634
  O     -123.451    -208.404      30.183
  H     -123.253    -208.127      29.265
  H     -122.127    -208.243      34.539
  H     -122.759    -206.718      33.878
  H     -121.070    -207.211      33.551
  H     -129.937    -202.658      27.774
  H     -129.950    -204.333      28.272
  H     -129.513    -203.912      26.634

 3  4  5  6  7  8  9  10  11  12  13  23  28  29  30  31  32 0
 6-311+G(2d,p)
 ****
 33  34 0
 6-311+G(2d,p)
 ****
 1  2  14  15  16  17  18  19  20  21  22  24  25  26  27 0
 3-21G
 ****
 35  36  37  38  39  40  41  42  43  44  45 0
 3-21G
 ****


