%nproc=1
%NoSave
%Mem=1900MB
#P OB98/GEN NMR

erre ene a

0 1
  C      -26.770     223.843    -582.175
  O      -27.238     224.900    -582.985
  H      -27.500     223.660    -581.383
  H      -25.818     224.128    -581.717
  H      -26.640     222.921    -582.751
  P      -26.623     225.077    -584.450
  C      -24.283     225.565    -585.429
  O      -25.021     225.047    -584.328
  C      -23.455     226.784    -585.029
  O      -22.454     226.398    -584.065
  C      -22.709     227.406    -586.215
  O      -23.463     228.354    -586.951
  C      -21.515     228.063    -585.530
  O      -21.826     229.400    -585.107
  C      -21.265     227.162    -584.318
  N      -16.193     226.687    -584.782
  C      -16.961     227.838    -584.800
  N      -16.292     228.994    -585.005
  N      -18.261     227.835    -584.648
  C      -18.797     226.599    -584.552
  C      -18.140     225.387    -584.539
  C      -16.692     225.400    -584.635
  O      -15.967     224.414    -584.599
  N      -19.017     224.335    -584.468
  C      -20.207     224.906    -584.526
  N      -20.118     226.283    -584.496
  O      -26.912     226.619    -584.792
  O      -27.203     224.183    -585.505
  H      -21.879     229.964    -585.905
  H      -27.049     226.721    -585.753
  H      -15.196     226.751    -584.873
  H      -21.152     224.381    -584.543
  H      -21.068     227.753    -583.414
  H      -20.667     228.138    -586.216
  H      -15.308     229.043    -585.213
  H      -22.333     226.626    -586.886
  H      -16.838     229.833    -585.217
  H      -24.107     227.522    -584.535
  H      -25.017     225.845    -586.190
  H      -23.644     224.792    -585.860
  P      -23.653     228.204    -588.531
  C      -22.092     228.404    -590.633
  O      -22.228     228.345    -589.231
  O      -24.399     229.561    -588.939
  O      -24.411     226.994    -588.973
  H      -25.359     229.414    -589.027
  H      -21.057     228.498    -590.887
  H      -22.629     229.250    -591.008
  H      -22.486     227.509    -591.068

 6  7  8  9  10  11  12  13  14  15  26  29  33  34 0
 6-311+G(2d,p)
 ****
 36  38  39  40  41 0
 6-311+G(2d,p)
 ****
 1  2  3  4  5  16  17  18  19  20  21  22  23  24  25 0
 3-21G
 ****
 27  28  30  31  32  35  37  42  43  44  45  46  47 0
 3-21G
 ****
 48  49 0
 3-21G
 ****


