%nproc=1
%NoSave
%Mem=1900MB
#P OB98/GEN NMR

erre ene a

0 1
  C      134.918    -123.339      32.092
  O      135.037    -124.599      31.463
  H      134.880    -123.487      33.175
  H      133.999    -122.840      31.772
  H      135.783    -122.714      31.850
  P      135.003    -124.599      29.856
  C      132.614    -125.610      30.159
  O      133.433    -124.643      29.515
  C      131.145    -125.257      29.957
  O      130.855    -123.953      30.506
  C      130.716    -125.188      28.495
  O      130.495    -126.466      27.923
  C      129.428    -124.396      28.627
  O      128.385    -125.251      29.133
  C      129.835    -123.334      29.676
  N      130.339    -122.097      29.075
  C      129.400    -121.282      28.433
  O      128.215    -121.615      28.377
  N      129.831    -120.120      27.834
  C      131.085    -119.794      27.882
  N      131.457    -118.641      27.261
  C      132.105    -120.614      28.563
  C      131.668    -121.738      29.130
  O      135.485    -126.076      29.468
  O      135.765    -123.506      29.184
  H      127.702    -124.668      29.512
  H      135.379    -126.219      28.496
  H      133.141    -120.306      28.567
  H      132.362    -122.392      29.645
  H      128.989    -123.087      30.330
  H      129.077    -123.987      27.676
  H      131.424    -124.606      27.893
  H      130.541    -125.988      30.515
  H      130.748    -118.133      26.751
  H      132.860    -125.615      31.227
  H      132.427    -118.402      27.092
  H      132.810    -126.604      29.743
  P      130.828    -126.652      26.363
  C      128.338    -126.547      25.631
  O      129.630    -125.964      25.541
  O      130.585    -128.214      26.124
  O      132.206    -126.228      25.955
  H      131.250    -128.587      25.512
  H      127.650    -125.984      25.035
  H      128.014    -126.541      26.651
  H      128.376    -127.555      25.275

 6  7  8  9  10  11  12  13  14  15  16  26  30  31  32  33  35 0
 6-311+G(2d,p)
 ****
 37  38 0
 6-311+G(2d,p)
 ****
 1  2  3  4  5  17  18  19  20  21  22  23  24  25 0
 3-21G
 ****
 27  28  29  34  36  39  40  41  42  43  44  45  46 0
 3-21G
 ****


