%nproc=1
%NoSave
%Mem=1900MB
#P OB98/GEN NMR

erre ene a

0 1
  C     1045.141      65.834      25.583
  O     1045.455      65.488      24.247
  P     1044.592      64.313      23.566
  C     1046.788      63.011      23.088
  O     1045.497      62.985      23.677
  C     1047.390      61.598      23.103
  O     1047.215      60.987      24.386
  C     1046.745      60.644      22.106
  O     1047.205      60.899      20.789
  C     1047.180      59.293      22.650
  O     1048.469      58.912      22.167
  C     1047.222      59.548      24.184
  N     1046.142      58.901      24.896
  C     1046.467      57.693      25.509
  O     1047.599      57.211      25.398
  N     1045.478      57.019      26.188
  C     1044.286      57.508      26.264
  N     1043.351      56.813      26.952
  C     1043.884      58.800      25.613
  C     1044.874      59.434      24.959
  O     1044.637      64.668      22.012
  O     1043.192      64.197      24.082
  H     1048.659      58.041      22.565
  H     1043.866      64.327      21.543
  H     1042.885      59.168      25.698
  H     1044.682      60.364      24.460
  H     1048.182      59.199      24.605
  H     1046.476      58.489      22.371
  H     1045.650      60.727      22.137
  H     1048.470      61.695      22.896
  H     1043.632      55.939      27.366
  H     1047.448      63.662      23.663
  H     1042.390      57.131      27.078
  H     1046.714      63.391      22.061
  P     1046.437      60.195      19.574
  C     1048.530      59.131      18.542
  O     1047.306      58.905      19.222
  O     1046.790      61.183      18.347
  O     1044.974      59.991      19.730
  H     1046.263      60.906      17.555
  H     1049.096      58.202      18.491
  H     1049.125      59.878      19.072
  H     1048.336      59.463      17.520
  H     1045.787      66.623      25.908
  H     1045.276      64.980      26.214
  H     1044.123      66.160      25.637

 3  4  5  6  7  8  9  10  11  12  13  21  23  27  28  29  30  32 0
 6-311+G(2d,p)
 ****
 34  35 0
 6-311+G(2d,p)
 ****
 1  2  14  15  16  17  18  19  20  22  24  25  26 0
 3-21G
 ****
 31  33  36  37  38  39  40  41  42  43  44  45  46 0
 3-21G
 ****


