%nproc=1
%NoSave
%Mem=1900MB
#P OB98/GEN NMR

erre ene a

0 1
  C      407.250     339.817    -196.328
  O      408.378     339.513    -195.535
  P      408.482     339.869    -193.980
  C      408.645     337.429    -193.118
  O      407.896     338.631    -193.141
  C      409.347     337.185    -191.772
  O      408.370     337.210    -190.712
  C      409.977     335.790    -191.752
  O      411.247     335.566    -192.324
  C      409.831     335.311    -190.310
  O      411.026     335.496    -189.548
  C      408.702     336.183    -189.758
  N      405.869     334.203    -186.044
  C      406.886     335.137    -185.965
  N      407.317     335.429    -184.712
  N      407.431     335.705    -187.002
  C      406.962     335.239    -188.187
  C      405.951     334.330    -188.394
  C      405.324     333.737    -187.235
  O      404.479     332.849    -187.266
  N      405.789     334.039    -189.724
  C      406.729     334.746    -190.323
  N      407.489     335.456    -189.430
  O      408.093     341.256    -193.582
  O      410.068     339.726    -193.725
  H      410.873     335.127    -188.659
  H      410.324     340.394    -193.057
  H      405.540     333.740    -185.210
  H      406.922     334.747    -191.391
  H      409.024     336.702    -188.843
  H      409.610     334.239    -190.275
  H      407.022     334.904    -183.906
  H      409.311     335.133    -192.330
  H      408.168     335.974    -184.625
  H      410.049     337.986    -191.547
  H      409.375     337.478    -193.932
  H      407.987     336.580    -193.332
  P      411.944     334.152    -192.579
  C      412.301     334.707    -195.050
  O      411.774     333.769    -194.124
  O      410.979     333.100    -191.844
  O      413.338     334.030    -192.051
  H      411.476     332.287    -191.638
  H      411.867     334.513    -196.037
  H      413.387     334.592    -195.109
  H      412.061     335.736    -194.754
  H      407.418     339.482    -197.330
  H      407.089     340.875    -196.328
  H      406.389     339.325    -195.927

 3  4  5  6  7  8  9  10  11  12  23  26  30  31 0
 6-311+G(2d,p)
 ****
 33  35  36  37  38 0
 6-311+G(2d,p)
 ****
 1  2  13  14  15  16  17  18  19  20  21  22  24  25 0
 3-21G
 ****
 27  28  29  32  34  39  40  41  42  43  44  45  46  47  48  49 0
 3-21G
 ****


