%nproc=1
%NoSave
%Mem=1900MB
#P OB98/GEN NMR

erre ene a

0 1
  C     -589.520      99.984     416.643
  O     -589.827     101.104     417.489
  P     -591.386     101.421     417.697
  C     -591.301     103.764     416.577
  O     -591.850     102.451     416.550
  C     -591.717     104.588     415.360
  O     -593.141     104.918     415.420
  C     -590.964     105.917     415.217
  O     -590.803     106.167     413.816
  C     -591.937     106.926     415.784
  O     -591.638     108.252     415.357
  C     -593.254     106.355     415.250
  N     -597.206     109.488     414.828
  C     -596.123     109.279     413.974
  N     -596.131     109.981     412.837
  N     -595.131     108.461     414.238
  C     -595.292     107.798     415.414
  C     -596.303     107.895     416.333
  C     -597.381     108.825     416.051
  O     -598.356     109.038     416.762
  N     -596.113     107.042     417.398
  C     -594.939     106.469     417.145
  N     -594.432     106.860     415.931
  O     -591.415     102.297     419.041
  O     -592.239     100.196     417.827
  H     -591.922     108.337     414.424
  H     -591.671     101.738     419.795
  H     -597.919     110.134     414.582
  H     -594.451     105.762     417.771
  H     -593.392     106.567     414.171
  H     -591.919     106.897     416.886
  H     -596.891     110.591     412.546
  H     -589.982     105.934     415.717
  H     -595.380     109.819     412.159
  H     -591.560     103.970     414.462
  H     -590.204     103.702     416.613
  H     -591.604     104.253     417.514
  P     -589.307     106.283     413.228
  C     -588.826     108.769     413.849
  O     -588.558     107.397     414.109
  O     -589.524     107.021     411.827
  O     -588.598     104.984     413.063
  H     -588.920     106.642     411.159
  H     -588.638     109.328     414.777
  H     -589.874     108.911     413.544
  H     -588.158     109.119     413.072
  H     -588.458      99.867     416.577
  H     -589.922     100.154     415.666
  H     -589.951      99.096     417.056

 3  4  5  6  7  8  9  10  11  12  23  26  30  31 0
 6-311+G(2d,p)
 ****
 33  35  36  37  38 0
 6-311+G(2d,p)
 ****
 1  2  13  14  15  16  17  18  19  20  21  22  24  25 0
 3-21G
 ****
 27  28  29  32  34  39  40  41  42  43  44  45  46  47  48  49 0
 3-21G
 ****


