%nproc=1
%NoSave
%Mem=1900MB
#P OB98/GEN NMR

erre ene a

0 1
  C       78.172     248.325     -41.626
  O       79.584     248.323     -41.570
  P       80.432     249.604     -42.017
  C       81.423     249.532     -39.653
  O       80.923     250.361     -40.691
  C       82.768     250.038     -39.129
  O       83.121     249.314     -37.925
  C       83.926     249.889     -40.127
  O       84.757     251.048     -39.989
  C       84.647     248.652     -39.627
  O       85.998     248.599     -40.067
  C       84.455     248.799     -38.115
  N       84.648     247.547     -37.404
  C       85.961     247.095     -37.261
  O       86.882     247.678     -37.837
  N       86.192     245.989     -36.484
  C       85.186     245.288     -36.054
  N       85.461     244.239     -35.230
  C       83.787     245.598     -36.397
  C       83.587     246.752     -37.029
  O       79.770     250.483     -43.024
  O       81.792     248.990     -42.601
  H       81.944     249.348     -43.499
  H       86.426     247.807     -39.677
  H       82.995     244.919     -36.122
  H       82.591     247.084     -37.303
  H       85.149     249.547     -37.709
  H       84.135     247.755     -39.995
  H       83.585     249.808     -41.165
  H       82.647     251.096     -38.852
  H       86.430     244.081     -34.984
  H       81.557     248.526     -40.056
  H       84.760     243.845     -34.605
  H       80.691     249.470     -38.839
  P       85.598     251.537     -41.267
  C       83.740     253.251     -41.853
  O       84.576     252.206     -42.302
  O       85.933     250.138     -41.986
  O       86.864     252.278     -40.989
  H       86.740     250.243     -42.521
  H       83.069     253.538     -42.664
  H       84.337     254.123     -41.571
  H       83.137     252.924     -41.000
  H       77.800     247.381     -41.287
  H       77.855     248.491     -42.634
  H       77.791     249.104     -40.999

 3  4  5  6  7  8  9  10  11  12  13  24  27  28  29  30  32 0
 6-311+G(2d,p)
 ****
 34  35 0
 6-311+G(2d,p)
 ****
 1  2  14  15  16  17  18  19  20  21  22  23  25  26 0
 3-21G
 ****
 31  33  36  37  38  39  40  41  42  43  44  45  46 0
 3-21G
 ****


