%nproc=1
%NoSave
%Mem=1900MB
#P OB98/GEN NMR

erre ene a

0 1
  C       41.611     261.221    -817.286
  O       42.917     261.756    -817.419
  H       41.375     260.578    -818.140
  H       41.574     260.614    -816.370
  H       40.875     262.026    -817.204
  P       43.170     262.703    -818.687
  C       45.118     261.164    -819.457
  O       44.706     262.484    -819.114
  C       46.427     261.216    -820.244
  O       46.183     261.710    -821.572
  C       47.494     262.131    -819.652
  O       48.180     261.520    -818.573
  C       48.399     262.327    -820.858
  O       49.251     261.174    -821.006
  C       47.395     262.399    -822.013
  N       48.901     266.531    -824.640
  C       49.432     265.287    -824.509
  N       48.964     264.239    -823.813
  C       47.802     264.553    -823.214
  C       47.124     265.760    -823.262
  C       47.727     266.785    -824.010
  N       47.199     268.066    -824.078
  N       45.970     265.702    -822.505
  C       45.970     264.488    -821.990
  N       47.046     263.754    -822.393
  O       43.159     264.175    -818.043
  O       42.170     262.575    -819.786
  H       48.661     260.415    -821.189
  H       42.277     264.570    -818.154
  H       50.371     265.129    -825.048
  H       45.206     264.102    -821.320
  H       47.752     261.877    -822.912
  H       49.051     263.205    -820.767
  H       47.078     263.110    -819.360
  H       46.805     260.187    -820.338
  H       44.343     260.689    -820.071
  H       47.902     268.787    -824.227
  H       46.486     268.266    -823.388
  H       45.254     260.584    -818.533
  P       48.548     262.426    -817.300
  C       51.129     262.284    -817.415
  O       49.947     261.882    -816.733
  O       47.478     261.965    -816.217
  O       48.475     263.915    -817.537
  H       46.971     262.737    -815.885
  H       51.982     261.852    -816.935
  H       51.209     263.351    -817.392
  H       51.085     261.951    -818.431

 6  7  8  9  10  11  12  13  14  15  25  28  32  33  34  35 0
 6-311+G(2d,p)
 ****
 36  39  40 0
 6-311+G(2d,p)
 ****
 1  2  3  4  5  16  17  18  19  20  21  22  23  24 0
 3-21G
 ****
 26  27  29  30  31  37  38  41  42  43  44  45  46  47  48 0
 3-21G
 ****


