%nproc=1
%NoSave
%Mem=1900MB
#P OB98/GEN NMR

erre ene a

0 1
  C     -260.254     141.604    -601.547
  O     -259.542     140.631    -600.807
  H     -259.551     142.369    -601.887
  H     -261.011     142.079    -600.918
  H     -260.727     141.145    -602.419
  P     -260.409     139.424    -600.192
  C     -260.489     138.329    -602.539
  O     -261.226     138.794    -601.423
  C     -260.821     136.863    -602.827
  O     -260.373     136.018    -601.745
  C     -262.307     136.584    -603.014
  O     -262.721     136.881    -604.335
  C     -262.373     135.095    -602.696
  O     -261.971     134.294    -603.831
  C     -261.359     134.965    -601.550
  N     -264.158     132.586    -598.086
  C     -263.688     132.151    -599.305
  N     -264.073     130.904    -599.688
  N     -262.929     132.859    -600.089
  C     -262.660     134.092    -599.598
  C     -263.048     134.635    -598.396
  C     -263.864     133.817    -597.521
  O     -264.256     134.124    -596.397
  N     -262.555     135.904    -598.241
  C     -261.905     136.144    -599.366
  N     -261.954     135.079    -600.227
  O     -261.546     140.177    -599.346
  O     -259.650     138.454    -599.354
  H     -262.581     134.461    -604.571
  H     -261.798     139.614    -598.588
  H     -264.728     131.981    -597.517
  H     -261.393     137.065    -599.597
  H     -260.827     134.011    -601.575
  H     -263.385     134.779    -602.442
  H     -264.895     130.462    -599.299
  H     -262.902     137.138    -602.279
  H     -263.750     130.583    -600.591
  H     -260.258     136.568    -603.719
  H     -259.415     138.410    -602.322
  H     -260.723     138.940    -603.415
  P     -264.276     137.199    -604.577
  C     -263.884     139.612    -603.681
  O     -264.651     138.417    -603.596
  O     -265.014     135.945    -603.907
  O     -264.667     137.379    -606.011
  H     -265.937     135.891    -604.222
  H     -264.252     140.323    -602.971
  H     -263.965     140.018    -604.667
  H     -262.858     139.393    -603.468

 6  7  8  9  10  11  12  13  14  15  26  29  33  34 0
 6-311+G(2d,p)
 ****
 36  38  39  40  41 0
 6-311+G(2d,p)
 ****
 1  2  3  4  5  16  17  18  19  20  21  22  23  24  25 0
 3-21G
 ****
 27  28  30  31  32  35  37  42  43  44  45  46  47 0
 3-21G
 ****
 48  49 0
 3-21G
 ****


