%nproc=1
%NoSave
%Mem=1900MB
#P OB98/GEN NMR

erre ene a

0 1
  C     -222.658    -355.771      28.406
  O     -222.184    -356.459      27.267
  H     -223.405    -356.394      28.902
  H     -223.125    -354.828      28.113
  H     -221.837    -355.580      29.105
  P     -221.117    -355.734      26.315
  C     -221.026    -355.057      23.825
  O     -221.848    -355.472      24.910
  C     -221.895    -354.643      22.630
  O     -222.574    -355.827      22.145
  C     -222.961    -353.602      23.011
  O     -222.936    -352.449      22.168
  C     -224.246    -354.421      23.066
  O     -225.422    -353.678      22.828
  C     -223.982    -355.549      22.062
  N     -224.766    -356.757      22.316
  C     -225.712    -357.120      21.359
  O     -225.929    -356.512      20.317
  N     -226.432    -358.257      21.642
  C     -226.311    -359.029      22.759
  O     -226.982    -360.038      22.954
  C     -225.316    -358.577      23.744
  C     -224.603    -357.482      23.486
  O     -219.785    -356.402      26.209
  O     -220.984    -354.259      26.930
  H     -225.297    -353.203      21.980
  H     -220.136    -354.182      27.412
  H     -227.106    -358.539      20.952
  H     -225.205    -359.162      24.650
  H     -223.860    -357.118      24.190
  H     -224.210    -355.217      21.047
  H     -224.336    -354.853      24.074
  H     -222.760    -353.187      24.006
  H     -221.243    -354.282      21.827
  H     -220.381    -355.900      23.550
  H     -220.400    -354.213      24.139
  P     -222.945    -350.937      22.681
  C     -224.774    -349.181      23.388
  O     -224.459    -350.500      22.956
  O     -222.099    -349.981      21.906
  O     -222.323    -351.038      24.169
  H     -221.844    -350.198      24.321
  H     -225.833    -349.090      23.515
  H     -224.441    -348.476      22.655
  H     -224.285    -348.984      24.319

 6  7  8  9  10  11  12  13  14  15  16  26  31  32  33  34  35 0
 6-311+G(2d,p)
 ****
 36  37 0
 6-311+G(2d,p)
 ****
 1  2  3  4  5  17  18  19  20  21  22  23  24  25 0
 3-21G
 ****
 27  28  29  30  38  39  40  41  42  43  44  45 0
 3-21G
 ****


