%nproc=1
%NoSave
%Mem=1900MB
#P OB98/GEN NMR

erre ene a

0 1
  C      275.010     220.467    -115.323
  O      274.310     220.404    -114.092
  H      274.731     219.612    -115.945
  H      274.726     221.385    -115.839
  H      276.087     220.472    -115.157
  P      274.786     219.301    -113.029
  C      275.403     221.112    -111.271
  O      274.618     219.964    -111.573
  C      274.612     222.091    -110.417
  O      273.659     222.796    -111.273
  C      273.813     221.442    -109.275
  O      273.874     222.294    -108.125
  C      272.382     221.425    -109.802
  O      271.415     221.407    -108.765
  C      272.368     222.704    -110.643
  N      267.314     223.045    -111.213
  C      268.138     223.393    -110.200
  N      269.483     223.321    -110.156
  C      269.977     222.887    -111.330
  C      269.265     222.493    -112.449
  C      267.870     222.573    -112.366
  N      267.022     222.163    -113.368
  N      270.137     222.062    -113.438
  C      271.347     222.157    -112.912
  N      271.299     222.652    -111.633
  O      276.379     219.278    -113.250
  O      274.181     217.946    -113.190
  H      270.530     221.307    -109.170
  H      276.605     218.645    -113.959
  H      267.650     223.777    -109.308
  H      272.263     221.861    -113.385
  H      272.208     223.601    -110.032
  H      272.232     220.541    -110.438
  H      274.164     220.438    -109.003
  H      275.299     222.855    -110.022
  H      275.690     221.601    -112.213
  H      266.033     222.156    -113.170
  H      267.417     221.712    -114.182
  H      276.312     220.798    -110.747
  P      273.417     221.681    -106.714
  C      275.777     222.129    -105.702
  O      274.363     222.283    -105.569
  O      273.883     220.152    -106.811
  O      271.950     221.790    -106.449
  H      273.272     219.578    -106.319
  H      276.265     222.581    -104.864
  H      276.104     222.603    -106.604
  H      276.021     221.088    -105.738

 6  7  8  9  10  11  12  13  14  15  25  28  32  33  34  35 0
 6-311+G(2d,p)
 ****
 36  39  40 0
 6-311+G(2d,p)
 ****
 1  2  3  4  5  16  17  18  19  20  21  22  23  24 0
 3-21G
 ****
 26  27  29  30  31  37  38  41  42  43  44  45  46  47 0
 3-21G
 ****
 48 0
 3-21G
 ****


