%nproc=1
%NoSave
%Mem=1900MB
#P OB98/GEN NMR

erre ene a

0 1
  C     -398.975    -170.583     -98.062
  O     -399.506    -170.296     -96.781
  P     -398.576    -170.579     -95.508
  C     -400.316    -172.144     -94.359
  O     -399.542    -170.954     -94.287
  C     -401.405    -172.117     -93.286
  O     -400.815    -172.094     -91.968
  C     -402.300    -170.886     -93.354
  O     -403.273    -171.009     -94.379
  C     -402.891    -170.857     -91.953
  O     -404.020    -171.738     -91.852
  C     -401.715    -171.374     -91.099
  N     -401.034    -170.307     -90.377
  C     -401.741    -169.741     -89.320
  O     -402.881    -170.091     -89.013
  N     -401.108    -168.730     -88.650
  C     -399.889    -168.201     -88.960
  O     -399.398    -167.255     -88.355
  C     -399.201    -168.819     -90.105
  C     -399.798    -169.821     -90.755
  O     -398.011    -169.134     -95.116
  O     -397.476    -171.557     -95.747
  H     -404.778    -171.267     -92.251
  H     -397.096    -169.213     -94.785
  H     -401.592    -168.325     -87.864
  H     -398.231    -168.423     -90.380
  H     -399.313    -170.280     -91.608
  H     -402.077    -172.108     -90.368
  H     -403.239    -169.858     -91.674
  H     -401.686    -169.987     -93.504
  H     -402.004    -173.033     -93.375
  H     -399.665    -173.009     -94.202
  H     -400.760    -172.223     -95.355
  P     -402.792    -170.703     -95.879
  C     -405.248    -169.918     -96.301
  O     -404.138    -170.665     -96.748
  O     -402.089    -172.093     -96.257
  O     -401.903    -169.509     -95.977
  H     -402.518    -172.849     -95.822
  H     -404.936    -169.001     -95.792
  H     -405.844    -170.528     -95.619
  H     -405.862    -169.648     -97.165
  H     -399.702    -170.346     -98.811
  H     -398.728    -171.622     -98.121
  H     -398.094    -169.997     -98.222

 3  4  5  6  7  8  9  10  11  12  13  23  28  29  30  31  32 0
 6-311+G(2d,p)
 ****
 33  34 0
 6-311+G(2d,p)
 ****
 1  2  14  15  16  17  18  19  20  21  22  24  25  26 0
 3-21G
 ****
 27  35  36  37  38  39  40  41  42  43  44  45 0
 3-21G
 ****


