%nproc=1
%NoSave
%Mem=1900MB
#P OB98/GEN NMR

erre ene a

0 1
  C      112.757     221.700      96.316
  O      113.046     221.113      95.062
  H      112.536     220.904      97.032
  H      111.881     222.350      96.230
  H      113.614     222.274      96.676
  P      113.565     222.094      93.907
  C      111.782     223.185      92.316
  O      112.383     223.141      93.605
  C      110.595     222.226      92.261
  O      109.708     222.430      93.380
  C      109.700     222.422      91.049
  O      110.300     221.988      89.850
  C      108.488     221.601      91.467
  O      108.718     220.199      91.267
  C      108.403     221.932      92.978
  N      107.344     222.885      93.281
  C      106.060     222.342      93.427
  O      105.881     221.130      93.310
  N      105.011     223.195      93.673
  C      105.225     224.467      93.790
  N      104.143     225.256      94.023
  C      106.565     225.076      93.670
  C      107.566     224.235      93.412
  O      113.543     221.153      92.614
  O      114.880     222.751      94.171
  H      108.662     220.047      90.303
  H      112.687     220.719      92.461
  H      106.698     226.141      93.783
  H      108.580     224.601      93.308
  H      108.218     221.022      93.561
  H      107.597     221.863      90.891
  H      109.387     223.471      90.975
  H      110.983     221.200      92.315
  H      103.237     224.806      94.079
  H      112.511     222.941      91.537
  H      104.183     226.262      94.100
  H      111.446     224.212      92.143
  P      109.631     222.322      88.433
  C      108.655     220.345      87.107
  O      108.477     221.227      88.211
  O      110.585     222.458      87.295
  O      108.784     223.648      88.733
  H      108.098     223.548      89.417
  H      107.831     219.664      87.058
  H      109.565     219.796      87.232
  H      108.703     220.913      86.201

 6  7  8  9  10  11  12  13  14  15  16  26  30  31  32  33  35 0
 6-311+G(2d,p)
 ****
 37  38 0
 6-311+G(2d,p)
 ****
 1  2  3  4  5  17  18  19  20  21  22  23  24  25 0
 3-21G
 ****
 27  28  29  34  36  39  40  41  42  43  44  45  46 0
 3-21G
 ****


