%nproc=1
%NoSave
%Mem=1900MB
#P OB98/GEN NMR

erre ene a

0 1
  C     -499.323    -180.228     347.338
  O     -500.103    -181.292     346.831
  H     -498.275    -180.425     347.125
  H     -499.460    -180.152     348.421
  H     -499.611    -179.284     346.861
  P     -501.697    -181.145     346.934
  C     -501.925    -183.187     348.541
  O     -502.122    -181.796     348.342
  C     -502.634    -183.636     349.824
  O     -504.031    -183.249     349.745
  C     -502.590    -185.152     350.045
  O     -502.455    -185.418     351.447
  C     -503.955    -185.617     349.558
  O     -504.367    -186.859     350.116
  C     -504.826    -184.428     349.982
  N     -506.090    -184.368     349.237
  C     -507.090    -185.268     349.596
  O     -507.017    -186.059     350.537
  N     -508.218    -185.235     348.813
  C     -508.424    -184.441     347.724
  O     -509.443    -184.476     347.056
  C     -507.325    -183.514     347.388
  C     -506.228    -183.524     348.148
  O     -502.234    -182.213     345.864
  O     -502.240    -179.775     346.696
  H     -502.342    -181.798     344.990
  H     -505.305    -187.007     349.860
  H     -508.958    -185.886     349.060
  H     -507.453    -182.871     346.530
  H     -505.394    -182.862     347.918
  H     -505.035    -184.475     351.060
  H     -503.948    -185.722     348.464
  H     -501.772    -185.641     349.496
  H     -502.197    -183.098     350.673
  H     -500.861    -183.394     348.626
  H     -502.325    -183.730     347.677
  P     -501.034    -185.971     351.956
  C     -501.756    -188.465     352.303
  O     -500.989    -187.526     351.555
  O     -501.244    -185.970     353.542
  O     -499.883    -185.147     351.470
  H     -502.147    -186.220     353.815
  H     -501.609    -189.446     351.902
  H     -502.793    -188.207     352.243
  H     -501.443    -188.447     353.326

 6  7  8  9  10  11  12  13  14  15  16  27  31  32  33  34  35 0
 6-311+G(2d,p)
 ****
 36  37 0
 6-311+G(2d,p)
 ****
 1  2  3  4  5  17  18  19  20  21  22  23  24  25 0
 3-21G
 ****
 26  28  29  30  38  39  40  41  42  43  44  45 0
 3-21G
 ****


