%nproc=1
%NoSave
%Mem=1900MB
#P OB98/GEN NMR

erre ene a

0 1
  C      267.887    -440.363    -355.004
  O      268.481    -439.075    -354.978
  H      268.661    -441.103    -354.773
  H      267.496    -440.577    -355.998
  H      267.091    -440.437    -354.260
  P      267.543    -437.794    -355.191
  C      267.708    -436.906    -352.780
  O      266.859    -437.476    -353.766
  C      266.898    -436.518    -351.547
  O      266.176    -437.683    -351.070
  C      267.759    -436.001    -350.380
  O      267.059    -434.941    -349.730
  C      267.862    -437.199    -349.454
  O      268.082    -436.815    -348.097
  C      266.512    -437.886    -349.687
  N      267.634    -441.245    -346.076
  C      267.605    -439.856    -346.035
  N      267.947    -439.282    -344.861
  N      267.268    -439.112    -347.054
  C      266.937    -439.827    -348.153
  C      266.925    -441.190    -348.323
  C      267.315    -442.002    -347.200
  O      267.365    -443.231    -347.184
  N      266.555    -441.528    -349.610
  C      266.342    -440.375    -350.208
  N      266.568    -439.311    -349.373
  O      266.581    -437.879    -356.333
  O      268.580    -436.583    -355.380
  H      267.311    -436.255    -347.825
  H      268.686    -436.364    -356.319
  H      267.907    -441.765    -345.268
  H      266.034    -440.241    -351.233
  H      265.722    -437.453    -349.063
  H      268.694    -437.844    -349.765
  H      268.196    -439.797    -344.032
  H      268.744    -435.646    -350.705
  H      267.913    -438.268    -344.797
  H      266.151    -435.774    -351.833
  H      268.186    -436.014    -353.208
  H      268.486    -437.630    -352.509
  P      267.253    -433.443    -350.257
  C      264.925    -433.157    -351.311
  O      266.328    -433.236    -351.550
  O      268.670    -432.992    -350.406
  O      266.499    -432.571    -349.141
  H      266.929    -431.694    -349.076
  H      264.412    -433.020    -352.240
  H      264.719    -432.330    -350.664
  H      264.590    -434.062    -350.849

 6  7  8  9  10  11  12  13  14  15  26  29  33  34 0
 6-311+G(2d,p)
 ****
 36  38  39  40  41 0
 6-311+G(2d,p)
 ****
 1  2  3  4  5  16  17  18  19  20  21  22  23  24  25 0
 3-21G
 ****
 27  28  30  31  32  35  37  42  43  44  45  46  47 0
 3-21G
 ****
 48  49 0
 3-21G
 ****


