%nproc=1
%NoSave
%Mem=1900MB
#P OB98/GEN NMR

erre ene a

0 1
  C      981.940     628.217     833.803
  O      982.019     627.628     835.088
  H      982.724     628.976     833.700
  H      982.100     627.441     833.047
  H      980.960     628.663     833.641
  P      981.524     628.505     836.333
  C      983.956     629.196     836.926
  O      982.757     628.571     837.367
  C      984.996     629.208     838.054
  O      984.502     630.089     839.120
  C      985.278     627.824     838.681
  O      986.679     627.745     838.967
  C      984.500     627.866     839.981
  O      985.040     627.000     840.978
  C      984.610     629.346     840.352
  N      983.680     630.627     845.189
  C      984.824     630.556     844.482
  N      984.976     630.262     843.176
  C      983.785     630.072     842.583
  C      982.536     630.113     843.169
  C      982.505     630.380     844.549
  N      981.353     630.381     845.297
  N      981.543     629.820     842.246
  C      982.203     629.578     841.112
  N      983.558     629.718     841.274
  O      980.481     627.520     837.054
  O      980.903     629.823     835.989
  H      984.991     626.083     840.653
  H      979.603     627.639     836.662
  H      985.737     630.771     845.030
  H      981.749     629.269     840.188
  H      985.565     629.600     840.823
  H      983.457     627.591     839.796
  H      984.983     626.982     838.032
  H      985.914     629.654     837.673
  H      983.732     630.219     836.623
  H      981.447     630.481     846.303
  H      980.486     630.097     844.854
  H      984.354     628.646     836.060
  P      987.628     627.057     837.872
  C      988.407     625.032     839.323
  O      988.771     626.229     838.628
  O      988.426     628.296     837.239
  O      986.871     626.287     836.819
  H      988.608     628.136     836.301
  H      989.278     624.601     839.771
  H      987.979     624.335     838.633
  H      987.692     625.265     840.084

 6  7  8  9  10  11  12  13  14  15  25  28  32  33  34  35 0
 6-311+G(2d,p)
 ****
 36  39  40 0
 6-311+G(2d,p)
 ****
 1  2  3  4  5  16  17  18  19  20  21  22  23  24 0
 3-21G
 ****
 26  27  29  30  31  37  38  41  42  43  44  45  46  47 0
 3-21G
 ****
 48 0
 3-21G
 ****


