%nproc=1
%NoSave
%Mem=1900MB
#P OB98/GEN NMR

erre ene a

0 1
  C     -494.560    -507.852    -265.941
  O     -494.111    -508.953    -266.736
  P     -495.094    -510.189    -266.975
  C     -494.555    -510.858    -269.407
  O     -494.410    -511.194    -268.035
  C     -493.461    -509.883    -269.849
  O     -492.143    -510.423    -269.546
  C     -493.497    -509.607    -271.365
  O     -493.076    -508.260    -271.632
  C     -492.430    -510.543    -271.900
  O     -491.967    -510.126    -273.180
  C     -491.396    -510.467    -270.777
  N     -486.489    -511.897    -271.136
  C     -487.071    -510.683    -271.085
  N     -488.378    -510.375    -270.969
  C     -489.119    -511.490    -270.880
  C     -488.670    -512.806    -270.908
  C     -487.285    -512.997    -271.049
  N     -486.700    -514.239    -271.128
  N     -489.724    -513.689    -270.794
  C     -490.797    -512.920    -270.758
  N     -490.482    -511.588    -270.771
  O     -496.515    -509.846    -267.265
  O     -494.970    -511.013    -265.603
  H     -491.189    -510.672    -273.405
  H     -495.863    -511.326    -265.334
  H     -486.389    -509.838    -271.157
  H     -491.817    -513.279    -270.733
  H     -490.795    -509.550    -270.838
  H     -492.843    -511.556    -271.993
  H     -494.468    -509.770    -271.831
  H     -493.566    -508.952    -269.283
  H     -495.543    -510.416    -269.577
  H     -485.715    -514.277    -271.340
  H     -487.295    -515.052    -271.214
  H     -494.538    -511.777    -270.004
  P     -494.260    -507.188    -271.849
  C     -493.420    -504.927    -270.841
  O     -493.539    -505.758    -271.972
  O     -495.354    -507.289    -270.847
  O     -494.733    -507.510    -273.350
  H     -494.010    -507.558    -274.003
  H     -492.789    -504.072    -271.091
  H     -492.956    -505.462    -270.007
  H     -494.400    -504.557    -270.533
  H     -493.786    -507.116    -265.882
  H     -494.800    -508.197    -264.957
  H     -495.430    -507.419    -266.390

 3  4  5  6  7  8  9  10  11  12  22  25  29  30  31  32 0
 6-311+G(2d,p)
 ****
 33  36  37 0
 6-311+G(2d,p)
 ****
 1  2  13  14  15  16  17  18  19  20  21  23  24  26 0
 3-21G
 ****
 27  28  34  35  38  39  40  41  42  43  44  45  46  47  48 0
 3-21G
 ****


