%nproc=1
%NoSave
%Mem=1900MB
#P OB98/GEN NMR

erre ene a

0 1
  C       24.712      -4.123     -38.003
  O       23.932      -2.949     -37.869
  H       24.971      -4.255     -39.057
  H       24.153      -5.002     -37.672
  H       25.634      -4.032     -37.422
  P       23.295      -2.621     -36.436
  C       21.433      -3.730     -35.024
  O       21.998      -3.552     -36.318
  C       19.926      -3.943     -35.135
  O       19.319      -2.849     -35.851
  C       19.554      -5.202     -35.906
  O       19.749      -6.355     -35.113
  C       18.116      -4.895     -36.274
  O       17.230      -5.148     -35.176
  C       18.192      -3.382     -36.585
  N       18.318      -3.105     -38.012
  C       17.122      -3.066     -38.737
  O       16.045      -3.253     -38.174
  N       17.186      -2.838     -40.090
  C       18.332      -2.648     -40.663
  N       18.325      -2.427     -42.004
  C       19.614      -2.667     -39.932
  C       19.534      -2.903     -38.624
  O       23.050      -1.178     -36.120
  O       24.320      -3.296     -35.407
  H       17.548      -5.975     -34.763
  H       25.018      -2.662     -35.156
  H       20.546      -2.498     -40.450
  H       20.429      -2.932     -38.012
  H       17.299      -2.867     -36.213
  H       17.781      -5.500     -37.116
  H       20.136      -5.263     -36.831
  H       19.504      -3.960     -34.123
  H       17.423      -2.433     -42.467
  H       21.645      -2.823     -34.450
  H       19.143      -2.181     -42.539
  H       21.898      -4.580     -34.513
  P       20.379      -7.685     -35.750
  C       19.885      -8.978     -37.927
  O       19.361      -8.123     -36.914
  O       20.733      -8.754     -34.773
  O       21.639      -7.132     -36.570
  H       22.379      -6.878     -35.966
  H       19.118      -9.198     -38.640
  H       20.230      -9.888     -37.482
  H       20.700      -8.490     -38.419

 6  7  8  9  10  11  12  13  14  15  16  26  30  31  32  33  35 0
 6-311+G(2d,p)
 ****
 37  38 0
 6-311+G(2d,p)
 ****
 1  2  3  4  5  17  18  19  20  21  22  23  24  25 0
 3-21G
 ****
 27  28  29  34  36  39  40  41  42  43  44  45  46 0
 3-21G
 ****


