%nproc=1
%NoSave
%Mem=1900MB
#P OB98/GEN NMR

erre ene a

0 1
  C       31.788     376.174    -757.224
  O       31.727     375.227    -758.278
  P       30.283     374.729    -758.768
  C       31.004     372.247    -758.866
  O       30.515     373.373    -759.586
  C       31.615     371.217    -759.805
  O       30.591     370.756    -760.734
  C       32.785     371.750    -760.656
  O       33.830     370.752    -760.692
  C       32.208     371.843    -762.057
  O       33.212     371.746    -763.065
  C       31.217     370.676    -762.023
  N       28.742     367.796    -765.350
  C       29.465     367.416    -764.243
  N       29.609     366.089    -764.034
  N       30.023     368.274    -763.423
  C       29.776     369.571    -763.741
  C       29.054     370.064    -764.815
  C       28.501     369.109    -765.753
  O       27.919     369.369    -766.796
  N       29.012     371.433    -764.795
  C       29.707     371.780    -763.722
  N       30.237     370.679    -763.080
  O       29.895     375.797    -759.879
  O       29.233     374.669    -757.684
  H       32.745     371.714    -763.919
  H       29.033     376.217    -759.668
  H       28.352     367.092    -765.959
  H       29.876     372.798    -763.396
  H       31.766     369.718    -762.074
  H       31.689     372.805    -762.167
  H       29.178     365.383    -764.608
  H       33.200     372.704    -760.312
  H       30.131     365.804    -763.213
  H       31.919     370.342    -759.217
  H       30.186     371.782    -758.313
  H       31.765     372.591    -758.146
  P       35.277     371.243    -760.154
  C       36.554     370.159    -762.162
  O       36.333     370.201    -760.758
  O       35.226     370.877    -758.591
  O       35.557     372.692    -760.401
  H       35.842     371.457    -758.096
  H       36.060     371.005    -762.669
  H       36.157     369.224    -762.556
  H       37.624     370.211    -762.349
  H       32.811     376.406    -757.012
  H       31.326     375.765    -756.350
  H       31.273     377.066    -757.515

 3  4  5  6  7  8  9  10  11  12  23  26  30  31  33  0
 6-311+G(2d,p)
 ****
 35  36  37  38 0
 6-311+G(2d,p)
 ****
 1  2  13  14  15  16  17  18  19  20  21  22  24  25  27  28  29 0
 3-21G
 ****
 32  34  39  40  41  42  43  44  45  46  47  48  49 0
 3-21G
 ****


