%nproc=1
%NoSave
%Mem=1900MB
#P OB98/GEN NMR

erre ene a

0 1
  C     -106.263      77.604      71.916
  O     -105.903      78.069      70.634
  H     -106.503      76.540      71.848
  H     -107.144      78.140      72.277
  H     -105.434      77.734      72.616
  P     -105.483      79.615      70.506
  C     -106.813      81.667      69.617
  O     -106.865      80.401      70.259
  C     -108.175      82.015      69.010
  O     -108.600      80.935      68.146
  C     -109.267      82.232      70.059
  O     -110.050      83.370      69.696
  C     -110.099      80.964      69.997
  O     -111.444      81.178      70.421
  C     -109.930      80.543      68.532
  N     -110.135      79.108      68.352
  C     -111.227      78.720      67.570
  O     -111.971      79.572      67.081
  N     -111.483      77.383      67.405
  C     -110.750      76.507      68.018
  N     -111.067      75.198      67.832
  C     -109.617      76.871      68.892
  C     -109.366      78.174      69.008
  O     -104.756      79.672      69.084
  O     -104.659      80.146      71.632
  H     -111.901      80.308      70.427
  H     -104.258      80.517      68.967
  H     -109.046      76.106      69.394
  H     -108.554      78.534      69.631
  H     -110.641      81.082      67.890
  H     -109.657      80.207      70.656
  H     -108.869      82.384      71.061
  H     -108.055      82.898      68.372
  H     -111.857      74.987      67.235
  H     -106.057      81.634      68.827
  H     -110.585      74.435      68.283
  H     -106.533      82.431      70.350
  P     -110.389      84.396      70.885
  C     -112.457      84.875      72.373
  O     -111.799      83.956      71.516
  O     -110.720      85.760      70.118
  O     -109.282      84.552      71.873
  H     -109.948      86.355      70.132
  H     -113.377      84.448      72.715
  H     -112.660      85.779      71.838
  H     -111.830      85.091      73.213

 6  7  8  9  10  11  12  13  14  15  16  26  30  31  32  33  35 0
 6-311+G(2d,p)
 ****
 37  38 0
 6-311+G(2d,p)
 ****
 1  2  3  4  5  17  18  19  20  21  22  23  24  25 0
 3-21G
 ****
 27  28  29  34  36  39  40  41  42  43  44  45  46 0
 3-21G
 ****


