%nproc=1
%NoSave
%Mem=1900MB
#P OB98/GEN NMR

erre ene a

0 1
  C       62.303    -112.667      -2.458
  O       61.255    -111.989      -3.119
  H       61.876    -113.284      -1.663
  H       62.993    -111.948      -2.010
  H       62.844    -113.318      -3.151
  P       61.585    -111.173      -4.458
  C       60.666    -113.180      -5.789
  O       61.730    -112.251      -5.634
  C       59.803    -112.789      -6.986
  O       60.637    -112.515      -8.133
  C       58.830    -113.874      -7.432
  O       57.722    -113.952      -6.554
  C       58.501    -113.398      -8.840
  O       57.523    -112.348      -8.809
  C       59.873    -112.862      -9.310
  N       60.607    -113.810     -10.148
  C       61.517    -113.267     -11.048
  O       61.690    -112.055     -11.180
  N       62.216    -114.167     -11.809
  C       62.034    -115.520     -11.814
  O       62.651    -116.280     -12.557
  C       61.034    -116.036     -10.870
  C       60.378    -115.171     -10.092
  O       62.707    -110.194      -4.362
  O       60.199    -110.447      -4.807
  H       57.379    -112.074      -9.736
  H       60.235    -109.516      -4.517
  H       62.872    -113.791     -12.475
  H       60.859    -117.103     -10.851
  H       59.632    -115.533      -9.392
  H       59.742    -111.935      -9.882
  H       58.093    -114.191      -9.466
  H       59.343    -114.840      -7.498
  H       59.266    -111.865      -6.732
  H       60.054    -113.170      -4.879
  H       61.086    -114.181      -5.925
  P       56.841    -115.283      -6.464
  C       57.605    -115.956      -4.113
  O       57.608    -116.306      -5.491
  O       56.427    -115.864      -7.776
  O       55.568    -114.847      -5.598
  H       54.786    -114.763      -6.179
  H       58.138    -116.697      -3.556
  H       56.596    -115.902      -3.761
  H       58.078    -115.005      -3.986

 6  7  8  9  10  11  12  13  14  15  16  26  31  32  33  34  35 0
 6-311+G(2d,p)
 ****
 36  37 0
 6-311+G(2d,p)
 ****
 1  2  3  4  5  17  18  19  20  21  22  23  24  25 0
 3-21G
 ****
 27  28  29  30  38  39  40  41  42  43  44  45 0
 3-21G
 ****


