%nproc=1
%NoSave
%Mem=1900MB
#P OB98/GEN NMR

erre ene a

0 1
  C      -72.439    -143.677      48.851
  O      -71.882    -142.795      49.800
  H      -73.025    -143.095      48.136
  H      -73.102    -144.389      49.351
  H      -71.662    -144.218      48.308
  P      -70.725    -143.332      50.767
  C      -68.590    -142.247      49.807
  O      -69.383    -143.422      49.894
  C      -67.097    -142.595      49.849
  O      -66.806    -143.546      48.793
  C      -66.225    -141.362      49.591
  O      -64.949    -141.466      50.216
  C      -66.040    -141.392      48.082
  O      -64.883    -140.680      47.645
  C      -65.979    -142.894      47.815
  N      -64.600    -144.424      43.152
  C      -63.811    -143.969      44.190
  N      -62.479    -143.919      43.955
  N      -64.286    -143.578      45.344
  C      -65.638    -143.615      45.413
  C      -66.527    -144.023      44.445
  C      -65.986    -144.486      43.184
  O      -66.642    -144.878      42.224
  N      -67.825    -143.910      44.877
  C      -67.723    -143.431      46.100
  N      -66.414    -143.259      46.480
  O      -71.100    -144.875      50.982
  O      -70.589    -142.613      52.075
  H      -64.104    -141.135      48.016
  H      -70.693    -145.212      51.800
  H      -64.182    -144.740      42.296
  H      -68.557    -143.208      46.753
  H      -64.954    -143.268      47.940
  H      -66.907    -140.913      47.621
  H      -62.100    -144.021      43.026
  H      -66.701    -140.437      49.908
  H      -61.934    -143.308      44.570
  H      -66.852    -143.089      50.796
  H      -68.860    -141.616      50.656
  H      -68.831    -141.692      48.899
  P      -64.413    -140.224      51.073
  C      -65.084    -141.129      53.466
  O      -65.194    -140.146      52.462
  O      -64.939    -138.950      50.265
  O      -62.927    -140.196      51.256
  H      -64.189    -138.436      49.912
  H      -65.698    -140.858      54.299
  H      -64.065    -141.202      53.783
  H      -65.406    -142.073      53.078

 6  7  8  9  10  11  12  13  14  15  26  29  33  34 0
 6-311+G(2d,p)
 ****
 36  38  39  40  41 0
 6-311+G(2d,p)
 ****
 1  2  3  4  5  16  17  18  19  20  21  22  23  24  25 0
 3-21G
 ****
 27  28  30  31  32  35  37  42  43  44  45  46  47 0
 3-21G
 ****
 48  49 0
 3-21G
 ****


