%nproc=1
%NoSave
%Mem=1900MB
#P OB98/GEN NMR

erre ene a

0 1
  C      261.494    -260.595     387.176
  O      261.602    -261.628     386.221
  P      260.297    -262.138     385.452
  C      258.095    -263.292     386.109
  O      259.447    -263.043     386.467
  C      257.724    -264.749     386.395
  O      257.809    -265.014     387.816
  C      256.296    -265.110     386.000
  O      256.182    -265.287     384.602
  C      256.077    -266.373     386.816
  O      256.659    -267.517     386.162
  C      256.857    -266.060     388.113
  N      254.211    -267.622     392.193
  C      254.859    -268.310     391.213
  N      255.501    -267.810     390.141
  C      255.427    -266.470     390.109
  C      254.781    -265.644     391.027
  C      254.171    -266.269     392.118
  N      253.576    -265.590     393.156
  N      254.903    -264.316     390.638
  C      255.601    -264.352     389.510
  N      255.991    -265.630     389.201
  O      260.537    -262.749     384.106
  O      259.396    -260.814     385.317
  H      256.414    -268.304     386.694
  H      259.239    -260.620     384.365
  H      254.849    -269.389     391.310
  H      255.859    -263.489     388.915
  H      257.432    -266.921     388.463
  H      255.020    -266.599     386.985
  H      255.600    -264.334     386.347
  H      258.444    -265.391     385.877
  H      257.971    -263.086     385.038
  H      253.299    -266.135     393.959
  H      253.793    -264.597     393.276
  H      257.441    -262.605     386.675
  P      254.745    -265.248     383.897
  C      252.717    -266.808     383.750
  O      254.072    -266.681     384.139
  O      254.722    -264.744     382.491
  O      253.886    -264.288     384.862
  H      253.233    -263.794     384.333
  H      252.079    -266.342     384.510
  H      252.461    -267.869     383.664
  H      252.534    -266.332     382.781
  H      262.460    -260.386     387.586
  H      260.833    -260.901     387.960
  H      261.107    -259.715     386.707

 3  4  5  6  7  8  9  10  11  12  22  25  29  30  31  32 0
 6-311+G(2d,p)
 ****
 33  36  37 0
 6-311+G(2d,p)
 ****
 1  2  13  14  15  16  17  18  19  20  21  23  24  26 0
 3-21G
 ****
 27  28  34  35  38  39  40  41  42  43  44  45  46  47  48 0
 3-21G
 ****


