%nproc=1
%NoSave
%Mem=1900MB
#P OB98/GEN NMR

erre ene a

0 1
  C     -294.683    -133.901     293.391
  O     -295.786    -134.493     292.734
  H     -294.815    -134.013     294.473
  H     -294.644    -132.834     293.154
  H     -293.747    -134.385     293.098
  P     -295.659    -134.718     291.153
  C     -296.391    -132.415     290.212
  O     -295.310    -133.287     290.498
  C     -296.107    -131.614     288.939
  O     -294.898    -130.833     289.138
  C     -295.901    -132.490     287.693
  O     -296.496    -131.837     286.567
  C     -294.388    -132.511     287.525
  O     -293.990    -132.756     286.177
  C     -294.004    -131.128     288.048
  N     -289.234    -130.767     286.450
  C     -290.419    -130.675     285.747
  N     -290.321    -130.465     284.416
  N     -291.603    -130.785     286.298
  C     -291.549    -130.957     287.644
  C     -290.441    -131.067     288.454
  C     -289.134    -130.974     287.826
  O     -288.049    -131.067     288.390
  N     -290.797    -131.272     289.762
  C     -292.120    -131.283     289.745
  N     -292.621    -131.091     288.484
  O     -297.175    -134.978     290.697
  O     -294.764    -135.837     290.732
  H     -294.245    -133.682     285.958
  H     -297.264    -135.887     290.356
  H     -288.350    -130.689     285.969
  H     -292.760    -131.440     290.606
  H     -294.123    -130.343     287.283
  H     -293.960    -133.298     288.157
  H     -289.446    -130.325     283.930
  H     -296.318    -133.492     287.798
  H     -291.180    -130.358     283.885
  H     -296.924    -130.899     288.787
  H     -296.519    -131.724     291.057
  H     -297.308    -133.000     290.089
  P     -297.979    -132.308     286.157
  C     -297.075    -134.361     284.854
  O     -297.944    -133.894     285.878
  O     -298.173    -131.676     284.697
  O     -299.044    -131.849     287.098
  H     -298.802    -130.931     284.742
  H     -297.153    -135.425     284.778
  H     -296.067    -134.093     285.092
  H     -297.351    -133.916     283.921

 6  7  8  9  10  11  12  13  14  15  26  29  33  34 0
 6-311+G(2d,p)
 ****
 36  38  39  40  41 0
 6-311+G(2d,p)
 ****
 1  2  3  4  5  16  17  18  19  20  21  22  23  24  25 0
 3-21G
 ****
 27  28  30  31  32  35  37  42  43  44  45  46  47 0
 3-21G
 ****
 48  49 0
 3-21G
 ****


