%nproc=1
%NoSave
%Mem=1900MB
#P OB98/GEN NMR

erre ene a

0 1
  C     -218.665     107.633      41.354
  O     -219.915     108.294      41.281
  P     -219.990     109.878      41.064
  C     -219.427     111.976      42.424
  O     -219.673     110.576      42.476
  C     -218.858     112.490      43.744
  O     -217.827     111.576      44.209
  C     -218.222     113.890      43.670
  O     -218.475     114.528      44.930
  C     -216.741     113.581      43.541
  O     -215.911     114.674      43.919
  C     -216.639     112.357      44.452
  N     -211.733     111.568      45.674
  C     -212.626     112.493      46.092
  N     -213.910     112.653      45.699
  C     -214.243     111.735      44.776
  C     -213.430     110.754      44.231
  C     -212.119     110.677      44.730
  N     -211.203     109.723      44.337
  N     -214.119     110.038      43.264
  C     -215.320     110.580      43.234
  N     -215.461     111.565      44.180
  O     -221.229     110.372      40.390
  O     -218.688     110.215      40.194
  H     -214.982     114.428      43.758
  H     -218.947     110.407      39.274
  H     -212.270     113.186      46.850
  H     -216.119     110.302      42.560
  H     -216.622     112.637      45.511
  H     -216.507     113.319      42.499
  H     -218.598     114.509      42.845
  H     -219.661     112.477      44.495
  H     -220.377     112.480      42.217
  H     -210.336     109.675      44.855
  H     -211.536     108.891      43.850
  H     -218.731     112.199      41.602
  P     -218.202     116.096      45.101
  C     -216.151     117.619      45.274
  O     -216.613     116.285      45.132
  O     -218.946     116.756      46.221
  O     -218.616     116.707      43.676
  H     -218.755     117.664      43.758
  H     -216.186     118.124      44.299
  H     -215.115     117.600      45.625
  H     -216.761     118.176      45.992
  H     -218.824     106.585      41.501
  H     -218.101     108.026      42.174
  H     -218.126     107.788      40.443

 3  4  5  6  7  8  9  10  11  12  22  25  29  30  31  32 0
 6-311+G(2d,p)
 ****
 33  36  37 0
 6-311+G(2d,p)
 ****
 1  2  13  14  15  16  17  18  19  20  21  23  24  26 0
 3-21G
 ****
 27  28  34  35  38  39  40  41  42  43  44  45  46  47  48 0
 3-21G
 ****


