%nproc=1
%NoSave
%Mem=1900MB
#P OB98/GEN NMR

erre ene a

0 1
  C      -15.400      60.976      25.608
  O      -16.569      60.632      24.885
  P      -16.638      59.171      24.219
  C      -17.074      56.838      25.293
  O      -16.465      58.113      25.413
  C      -16.095      55.735      25.706
  O      -14.994      55.718      24.762
  C      -15.491      55.904      27.105
  O      -15.270      54.587      27.626
  C      -14.157      56.570      26.824
  O      -13.221      56.396      27.882
  C      -13.773      55.890      25.514
  N       -8.930      57.281      25.080
  C       -9.551      56.529      26.062
  N       -8.752      56.032      27.030
  N      -10.835      56.287      26.090
  C      -11.501      56.837      25.047
  C      -11.008      57.629      24.038
  C       -9.582      57.857      23.997
  O       -8.979      58.443      23.102
  N      -12.006      58.073      23.212
  C      -13.090      57.483      23.675
  N      -12.827      56.687      24.757
  O      -15.253      59.076      23.427
  O      -17.821      58.914      23.341
  H      -12.465      56.994      27.715
  H      -15.361      59.348      22.494
  H       -7.934      57.418      25.101
  H      -14.083      57.589      23.267
  H      -13.323      54.901      25.670
  H      -14.306      57.647      26.680
  H       -7.751      56.154      27.054
  H      -16.119      56.483      27.786
  H       -9.175      55.452      27.743
  H      -16.610      54.770      25.625
  H      -17.357      56.678      24.248
  H      -17.980      56.803      25.906
  P      -15.322      54.391      29.216
  C      -17.165      54.683      31.012
  O      -16.675      55.064      29.742
  O      -14.186      55.397      29.735
  O      -15.053      52.999      29.686
  H      -13.777      55.037      30.544
  H      -17.817      55.475      31.389
  H      -16.353      54.525      31.727
  H      -17.747      53.763      30.916
  H      -15.497      61.971      25.991
  H      -14.551      60.925      24.959
  H      -15.269      60.292      26.421

 3  4  5  6  7  8  9  10  11  12  23  26  30  31 0
 6-311+G(2d,p)
 ****
 33  35  36  37  38 0
 6-311+G(2d,p)
 ****
 1  2  13  14  15  16  17  18  19  20  21  22  24  25 0
 3-21G
 ****
 27  28  29  32  34  39  40  41  42  43  44  45  46  47  48  49 0
 3-21G
 ****


