%nproc=1
%NoSave
%Mem=1900MB
#P OB98/GEN NMR

erre ene a

0 1
  C      301.229       9.333      48.547
  O      301.246       8.346      49.559
  H      300.261       9.839      48.566
  H      301.360       8.859      47.571
  H      302.018      10.073      48.712
  P      302.674       7.711      49.928
  C      304.167       5.911      48.798
  O      303.159       6.898      48.629
  C      304.513       5.271      47.458
  O      304.613       6.280      46.430
  C      305.838       4.514      47.444
  O      305.690       3.194      47.953
  C      306.136       4.493      45.952
  O      305.320       3.489      45.308
  C      305.683       5.894      45.519
  N      309.971       7.561      43.379
  C      309.217       6.437      43.097
  N      309.677       5.640      42.105
  N      308.116       6.119      43.725
  C      307.790       6.996      44.708
  C      308.460       8.139      45.087
  C      309.668       8.487      44.372
  O      310.365       9.478      44.578
  N      307.828       8.771      46.124
  C      306.790       8.002      46.390
  N      306.724       6.909      45.558
  O      302.288       6.561      50.975
  O      303.664       8.665      50.509
  H      305.440       2.662      45.807
  H      302.491       6.875      51.877
  H      310.817       7.754      42.872
  H      306.055       8.192      47.160
  H      305.268       5.901      44.506
  H      307.176       4.243      45.735
  H      310.531       5.814      41.596
  H      306.628       5.066      47.972
  H      309.136       4.811      41.878
  H      303.684       4.605      47.180
  H      303.801       5.141      49.485
  H      305.058       6.382      49.231
  P      306.708       2.701      49.091
  C      309.203       1.986      49.136
  O      308.171       2.659      48.425
  O      306.327       1.154      49.256
  O      306.611       3.427      50.390
  H      305.910       1.004      50.130
  H      310.114       2.038      48.577
  H      308.929       0.961      49.277
  H      309.342       2.452      50.089

 6  7  8  9  10  11  12  13  14  15  26  29  33  34 0
 6-311+G(2d,p)
 ****
 36  38  39  40  41 0
 6-311+G(2d,p)
 ****
 1  2  3  4  5  16  17  18  19  20  21  22  23  24  25 0
 3-21G
 ****
 27  28  30  31  32  35  37  42  43  44  45  46  47 0
 3-21G
 ****
 48  49 0
 3-21G
 ****


