%nproc=1
%NoSave
%Mem=1900MB
#P OB98/GEN NMR

erre ene a

0 1
  C     -711.902    -147.562       2.574
  O     -712.792    -146.516       2.987
  P     -712.198    -145.079       3.339
  C     -713.560    -143.329       1.982
  O     -712.366    -144.100       2.066
  C     -714.502    -143.909       0.938
  O     -714.873    -145.273       1.256
  C     -715.828    -143.170       0.850
  O     -715.794    -141.858       0.315
  C     -716.732    -144.176       0.156
  O     -716.558    -144.139      -1.267
  C     -716.200    -145.517       0.738
  N     -717.077    -146.078       1.756
  C     -718.109    -146.897       1.296
  O     -718.309    -147.099       0.101
  N     -718.914    -147.427       2.259
  C     -718.829    -147.203       3.606
  O     -719.600    -147.690       4.419
  C     -717.737    -146.312       4.027
  C     -716.917    -145.795       3.101
  O     -710.852    -145.059       3.970
  O     -713.299    -144.481       4.351
  H     -716.445    -143.208      -1.526
  H     -712.824    -144.019       5.068
  H     -719.663    -148.034       1.948
  H     -717.638    -146.105       5.094
  H     -716.110    -145.131       3.394
  H     -716.100    -146.258      -0.066
  H     -717.791    -143.978       0.350
  H     -716.222    -143.050       1.870
  H     -713.990    -143.924      -0.032
  H     -713.304    -142.291       1.732
  H     -714.028    -143.301       2.973
  P     -715.042    -140.635       1.027
  C     -713.883    -139.270      -0.844
  O     -713.750    -140.248       0.150
  O     -714.865    -140.707       2.518
  O     -716.021    -139.416       0.702
  H     -715.997    -138.780       1.445
  H     -712.917    -139.149      -1.349
  H     -714.158    -138.303      -0.394
  H     -714.626    -139.558      -1.587
  H     -712.463    -148.452       2.379
  H     -711.191    -147.752       3.350
  H     -711.388    -147.263       1.685

 3  4  5  6  7  8  9  10  11  12  13  23  28  29  30  31  32 0
 6-311+G(2d,p)
 ****
 33  34 0
 6-311+G(2d,p)
 ****
 1  2  14  15  16  17  18  19  20  21  22  24  25  26  27 0
 3-21G
 ****
 35  36  37  38  39  40  41  42  43  44  45 0
 3-21G
 ****


