%nproc=1
%NoSave
%Mem=1900MB
#P OB98/GEN NMR

erre ene a

0 1
  C     -271.231     273.591    -782.000
  O     -271.698     274.658    -782.796
  H     -272.076     272.932    -781.772
  H     -270.830     273.965    -781.055
  H     -270.471     273.015    -782.531
  P     -270.676     275.808    -783.243
  C     -270.448     274.871    -785.622
  O     -269.774     275.150    -784.399
  C     -269.566     274.044    -786.562
  O     -269.078     272.866    -785.861
  C     -270.294     273.561    -787.826
  O     -269.484     273.815    -788.973
  C     -270.431     272.060    -787.609
  O     -270.556     271.331    -788.823
  C     -269.163     271.774    -786.793
  N     -269.221     270.482    -786.127
  C     -268.259     269.537    -786.521
  O     -267.427     269.835    -787.378
  N     -268.305     268.277    -785.984
  C     -269.246     267.974    -785.147
  N     -269.248     266.707    -784.666
  C     -270.297     268.927    -784.723
  C     -270.224     270.150    -785.241
  O     -269.915     276.436    -782.125
  O     -271.573     276.859    -784.055
  H     -271.456     271.479    -789.183
  H     -271.118     277.734    -784.052
  H     -271.065     268.615    -784.031
  H     -270.951     270.915    -784.994
  H     -268.270     271.802    -787.430
  H     -271.318     271.859    -787.000
  H     -271.266     274.031    -787.963
  H     -268.681     274.639    -786.814
  H     -268.516     266.085    -784.991
  H     -270.723     275.825    -786.091
  H     -269.943     266.339    -784.038
  H     -271.359     274.310    -785.394
  P     -269.802     275.152    -789.793
  C     -267.583     276.244    -788.999
  O     -268.999     276.356    -789.089
  O     -271.338     275.456    -789.432
  O     -269.600     275.017    -791.262
  H     -271.894     275.297    -790.212
  H     -267.187     277.110    -788.511
  H     -267.168     276.167    -789.982
  H     -267.329     275.370    -788.436

 6  7  8  9  10  11  12  13  14  15  16  26  30  31  32  33  35 0
 6-311+G(2d,p)
 ****
 37  38 0
 6-311+G(2d,p)
 ****
 1  2  3  4  5  17  18  19  20  21  22  23  24  25 0
 3-21G
 ****
 27  28  29  34  36  39  40  41  42  43  44  45  46 0
 3-21G
 ****


