%nproc=1
%NoSave
%Mem=1900MB
#P OB98/GEN NMR

erre ene a

0 1
  C     -586.796      70.455     113.162
  O     -585.414      70.699     113.413
  P     -584.341      69.932     112.498
  C     -582.894      72.021     111.944
  O     -582.945      70.742     112.542
  C     -581.499      72.648     112.087
  O     -581.269      73.083     113.457
  C     -580.352      71.702     111.712
  O     -579.273      72.480     111.197
  C     -579.945      71.126     113.057
  O     -578.637      70.558     113.013
  C     -580.097      72.373     113.936
  N     -577.985      69.888     117.794
  C     -577.586      69.984     116.476
  N     -576.435      69.355     116.141
  N     -578.252      70.640     115.566
  C     -579.363      71.252     116.054
  C     -579.873      71.223     117.333
  C     -579.127      70.473     118.330
  O     -579.442      70.339     119.508
  N     -581.039      71.948     117.429
  C     -581.239      72.400     116.207
  N     -580.242      72.043     115.343
  O     -584.874      70.207     111.015
  O     -584.240      68.468     112.779
  H     -578.380      70.339     113.941
  H     -585.250      69.391     110.638
  H     -577.438      69.356     118.457
  H     -582.092      72.986     115.890
  H     -579.231      73.050     113.852
  H     -580.652      70.345     113.367
  H     -575.844      68.878     116.809
  H     -580.620      70.922     110.983
  H     -576.097      69.459     115.195
  H     -581.453      73.551     111.453
  H     -583.634      72.686     112.406
  H     -583.180      71.932     110.886
  P     -579.228      72.699     109.605
  C     -578.287      75.123     109.737
  O     -578.080      73.786     109.335
  O     -580.580      73.505     109.307
  O     -579.129      71.442     108.796
  H     -580.863      73.359     108.375
  H     -577.725      75.313     110.643
  H     -579.354      75.337     109.919
  H     -577.932      75.789     108.952
  H     -587.389      71.030     113.843
  H     -587.005      69.414     113.298
  H     -587.031      70.738     112.157

 3  4  5  6  7  8  9  10  11  12  23  26  30  31 0
 6-311+G(2d,p)
 ****
 33  35  36  37  38 0
 6-311+G(2d,p)
 ****
 1  2  13  14  15  16  17  18  19  20  21  22  24  25 0
 3-21G
 ****
 27  28  29  32  34  39  40  41  42  43  44  45  46  47  48  49 0
 3-21G
 ****


