%nproc=1
%NoSave
%Mem=1900MB
#P OB98/GEN NMR

erre ene a

0 1
  C       -2.983    -260.283     -73.797
  O       -2.729    -259.879     -72.460
  P       -3.892    -259.250     -71.551
  C       -4.022    -261.346     -70.044
  O       -4.696    -260.511     -70.976
  C       -4.673    -261.221     -68.670
  O       -6.080    -261.522     -68.775
  C       -4.125    -262.181     -67.622
  O       -2.867    -261.738     -67.135
  C       -5.259    -262.177     -66.602
  O       -5.187    -261.005     -65.776
  C       -6.504    -262.097     -67.513
  N       -7.143    -263.393     -67.715
  C       -8.495    -263.480     -67.374
  O       -9.102    -262.506     -66.937
  N       -9.147    -264.674     -67.571
  C       -8.501    -265.696     -68.040
  N       -9.215    -266.831     -68.279
  C       -7.062    -265.661     -68.362
  C       -6.455    -264.491     -68.182
  O       -4.738    -258.231     -72.233
  O       -3.138    -258.701     -70.256
  H       -5.015    -260.250     -66.374
  H       -2.813    -257.772     -70.350
  H       -6.566    -266.544     -68.741
  H       -5.404    -264.378     -68.415
  H       -7.238    -261.401     -67.094
  H       -5.260    -263.051     -65.943
  H       -4.012    -263.186     -68.043
  H       -4.569    -260.184     -68.330
  H      -10.225    -266.754     -68.213
  H       -2.977    -261.018     -69.974
  H       -8.866    -267.553     -68.897
  H       -4.045    -262.380     -70.399
  P       -1.584    -262.642     -67.467
  C       -0.385    -261.217     -69.269
  O       -1.213    -262.330     -68.999
  O       -2.178    -264.127     -67.494
  O       -0.461    -262.499     -66.495
  H       -1.976    -264.591     -66.659
  H       -0.039    -261.284     -70.303
  H        0.485    -261.207     -68.607
  H       -0.955    -260.290     -69.150
  H       -2.085    -260.673     -74.228
  H       -3.316    -259.441     -74.367
  H       -3.740    -261.039     -73.803

 3  4  5  6  7  8  9  10  11  12  13  23  27  28  29  30  32 0
 6-311+G(2d,p)
 ****
 34  35 0
 6-311+G(2d,p)
 ****
 1  2  14  15  16  17  18  19  20  21  22  24  25  26 0
 3-21G
 ****
 31  33  36  37  38  39  40  41  42  43  44  45  46 0
 3-21G
 ****


