%nproc=1
%NoSave
%Mem=1900MB
#P OB98/GEN NMR

erre ene a

0 1
  C     1013.688      62.690    -206.806
  O     1013.834      62.481    -205.401
  P     1012.909      63.155    -204.289
  C     1014.659      64.782    -203.176
  O     1013.491      64.611    -203.980
  C     1015.333      66.128    -203.400
  O     1014.348      67.180    -203.496
  C     1016.222      66.491    -202.179
  O     1017.529      65.956    -202.077
  C     1016.139      68.009    -202.067
  O     1017.222      68.653    -202.739
  C     1014.804      68.348    -202.745
  N     1012.570      72.292    -200.415
  C     1013.658      72.288    -201.248
  N     1014.279      73.478    -201.461
  N     1014.127      71.204    -201.835
  C     1013.481      70.067    -201.460
  C     1012.398      69.943    -200.621
  C     1011.839      71.167    -200.027
  O     1010.866      71.233    -199.303
  N     1012.017      68.622    -200.474
  C     1012.889      67.968    -201.205
  N     1013.803      68.797    -201.811
  O     1012.596      62.289    -203.104
  O     1011.528      63.445    -205.072
  H     1016.994      69.624    -202.803
  H     1010.801      63.352    -204.397
  H     1012.238      73.158    -200.014
  H     1012.913      66.892    -201.309
  H     1014.933      69.143    -203.487
  H     1016.170      68.328    -201.014
  H     1014.020      74.327    -200.971
  H     1015.708      66.109    -201.281
  H     1015.186      73.447    -201.887
  H     1015.901      66.151    -204.332
  H     1015.331      63.956    -203.441
  H     1014.399      64.653    -202.113
  P     1017.984      64.712    -201.173
  C     1018.135      66.467    -199.294
  O     1017.802      65.105    -199.634
  O     1019.572      64.665    -201.362
  O     1017.352      63.398    -201.555
  H     1019.918      63.787    -201.076
  H     1018.274      66.539    -198.216
  H     1017.321      67.113    -199.583
  H     1019.060      66.766    -199.816
  H     1014.431      62.125    -207.330
  H     1013.810      63.730    -207.026
  H     1012.714      62.372    -207.115

 3  4  5  6  7  8  9  10  11  12  23  26  30  31 0
 6-311+G(2d,p)
 ****
 33  35  36  37  38 0
 6-311+G(2d,p)
 ****
 1  2  13  14  15  16  17  18  19  20  21  22  24  25 0
 3-21G
 ****
 27  28  29  32  34  39  40  41  42  43  44  45  46  47  48  49 0
 3-21G
 ****


