%nproc=1
%NoSave
%Mem=1900MB
#P OB98/GEN NMR

erre ene a

0 1
  C     -229.733     199.006    -496.364
  O     -231.049     199.519    -496.416
  H     -229.208     199.282    -497.280
  H     -229.765     197.916    -496.293
  H     -229.187     199.419    -495.510
  P     -231.894     199.503    -495.055
  C     -231.209     201.972    -494.671
  O     -231.302     200.669    -494.118
  C     -231.310     203.027    -493.566
  O     -232.706     203.181    -493.201
  C     -230.532     202.667    -492.292
  O     -229.941     203.856    -491.763
  C     -231.609     202.163    -491.350
  O     -231.248     202.308    -489.979
  C     -232.802     203.015    -491.771
  N     -235.946     202.106    -487.938
  C     -234.791     202.867    -487.988
  N     -234.412     203.466    -486.840
  N     -234.069     203.019    -489.070
  C     -234.592     202.389    -490.151
  C     -235.718     201.608    -490.229
  C     -236.490     201.418    -489.020
  O     -237.506     200.742    -488.908
  N     -235.890     201.113    -491.498
  C     -234.870     201.596    -492.184
  N     -234.059     202.382    -491.410
  O     -231.401     198.159    -494.336
  O     -233.378     199.519    -495.224
  H     -232.005     201.997    -489.441
  H     -232.146     197.532    -494.263
  H     -236.454     202.012    -487.076
  H     -234.671     201.406    -493.226
  H     -232.793     204.007    -491.309
  H     -231.798     201.100    -491.543
  H     -234.944     203.432    -485.984
  H     -229.752     201.920    -492.464
  H     -233.589     204.060    -486.858
  H     -230.980     203.987    -493.973
  H     -232.023     202.118    -495.385
  H     -230.252     202.077    -495.196
  P     -228.339     203.930    -491.744
  C     -227.778     206.205    -492.846
  O     -227.859     204.798    -493.010
  O     -227.899     202.436    -492.124
  O     -227.767     204.347    -490.430
  H     -227.541     201.987    -491.339
  H     -227.448     206.652    -493.760
  H     -227.082     206.434    -492.066
  H     -228.742     206.590    -492.588

 6  7  8  9  10  11  12  13  14  15  26  29  33  34 0
 6-311+G(2d,p)
 ****
 36  38  39  40  41 0
 6-311+G(2d,p)
 ****
 1  2  3  4  5  16  17  18  19  20  21  22  23  24  25 0
 3-21G
 ****
 27  28  30  31  32  35  37  42  43  44  45  46  47 0
 3-21G
 ****
 48  49 0
 3-21G
 ****


