%nproc=1
%NoSave
%Mem=1900MB
#P OB98/GEN NMR

erre ene a

0 1
  C     -469.900    -938.531    -266.342
  O     -469.076    -937.534    -266.941
  P     -467.491    -937.714    -267.103
  C     -466.666    -936.823    -264.830
  O     -466.851    -937.967    -265.648
  C     -466.266    -937.204    -263.396
  O     -465.280    -938.247    -263.401
  C     -465.691    -936.053    -262.568
  O     -466.723    -935.212    -262.094
  C     -464.941    -936.833    -261.500
  O     -465.844    -937.261    -260.458
  C     -464.409    -938.041    -262.278
  N     -459.516    -937.882    -260.785
  C     -460.648    -938.097    -260.104
  N     -461.937    -938.119    -260.574
  C     -461.946    -937.915    -261.899
  C     -460.855    -937.668    -262.734
  C     -459.591    -937.655    -262.117
  N     -458.428    -937.415    -262.805
  N     -461.267    -937.478    -264.025
  C     -462.578    -937.619    -263.996
  N     -463.034    -937.882    -262.720
  O     -466.822    -936.633    -267.889
  O     -467.323    -939.134    -267.840
  H     -465.331    -937.829    -259.853
  H     -466.490    -939.133    -268.359
  H     -460.546    -938.280    -259.026
  H     -463.232    -937.538    -264.853
  H     -464.445    -938.965    -261.678
  H     -464.159    -936.227    -261.023
  H     -464.974    -935.492    -263.175
  H     -467.171    -937.613    -262.911
  H     -467.612    -936.255    -264.812
  H     -457.566    -937.394    -262.291
  H     -458.478    -937.198    -263.798
  H     -465.892    -936.190    -265.277
  P     -467.259    -934.005    -263.009
  C     -466.246    -932.132    -261.590
  O     -466.235    -932.794    -262.845
  O     -468.700    -933.665    -262.843
  O     -466.962    -934.516    -264.492
  H     -467.619    -934.138    -265.120
  H     -467.086    -931.440    -261.558
  H     -465.295    -931.580    -261.473
  H     -466.320    -932.860    -260.767
  H     -470.917    -938.199    -266.340
  H     -469.579    -938.702    -265.336
  H     -469.823    -939.440    -266.900

 3  4  5  6  7  8  9  10  11  12  22  25  29  30  31  32 0
 6-311+G(2d,p)
 ****
 33  36  37 0
 6-311+G(2d,p)
 ****
 1  2  13  14  15  16  17  18  19  20  21  23  24  26 0
 3-21G
 ****
 27  28  34  35  38  39  40  41  42  43  44  45  46  47  48 0
 3-21G
 ****


