%nproc=1
%NoSave
%Mem=1900MB
#P OB98/GEN NMR

erre ene a

0 1
  C      205.505      36.740      89.573
  O      205.192      38.032      90.079
  P      204.366      38.129      91.449
  C      202.325      39.395      90.469
  O      202.807      38.193      91.055
  C      200.795      39.425      90.457
  O      200.304      38.333      89.633
  C      200.145      39.277      91.838
  O      198.937      40.047      91.824
  C      199.792      37.800      91.894
  O      198.775      37.525      92.853
  C      199.388      37.562      90.442
  N      196.802      33.156      90.238
  C      196.435      34.395      90.629
  N      197.182      35.519      90.654
  C      198.428      35.272      90.217
  C      198.955      34.053      89.818
  C      198.079      32.955      89.833
  N      198.446      31.694      89.424
  N      200.282      34.191      89.465
  C      200.550      35.468      89.648
  N      199.456      36.162      90.077
  O      204.686      39.615      91.946
  O      204.724      37.118      92.484
  H      198.553      36.576      92.799
  H      205.239      39.586      92.751
  H      195.406      34.497      90.962
  H      201.513      35.933      89.484
  H      198.372      37.918      90.229
  H      200.679      37.217      92.163
  H      200.784      39.589      92.670
  H      200.472      40.361      89.979
  H      202.682      39.452      89.437
  H      197.728      30.990      89.334
  H      199.333      31.573      88.945
  H      202.714      40.254      91.020
  P      198.571      40.848      93.163
  C      196.872      39.206      94.235
  O      198.175      39.752      94.261
  O      197.176      41.551      92.806
  O      199.600      41.848      93.575
  H      197.072      42.369      93.324
  H      196.918      38.166      94.569
  H      196.439      39.235      93.227
  H      196.231      39.771      94.916
  H      206.054      36.838      88.660
  H      204.600      36.200      89.388
  H      206.096      36.210      90.290

 3  4  5  6  7  8  9  10  11  12  22  25  29  30  31  32 0
 6-311+G(2d,p)
 ****
 33  36  37 0
 6-311+G(2d,p)
 ****
 1  2  13  14  15  16  17  18  19  20  21  23  24  26 0
 3-21G
 ****
 27  28  34  35  38  39  40  41  42  43  44  45  46  47  48 0
 3-21G
 ****


