%nproc=1
%NoSave
%Mem=1900MB
#P OB98/GEN NMR

erre ene a

0 1
  C     -115.582      92.869      68.408
  O     -116.556      92.826      67.385
  H     -115.749      93.766      69.010
  H     -114.579      92.922      67.977
  H     -115.665      91.993      69.056
  P     -116.527      91.598      66.353
  C     -114.853      90.906      64.500
  O     -115.283      91.927      65.386
  C     -113.856      91.468      63.491
  O     -114.496      92.380      62.573
  C     -112.716      92.278      64.100
  O     -111.740      91.488      64.757
  C     -112.173      92.945      62.850
  O     -111.411      91.995      62.086
  C     -113.485      93.327      62.126
  N     -113.906      94.700      62.408
  C     -113.424      95.693      61.548
  O     -112.678      95.406      60.613
  N     -113.773      97.001      61.786
  C     -114.516      97.294      62.808
  N     -114.824      98.607      63.000
  C     -115.028      96.281      63.752
  C     -114.692      95.020      63.495
  O     -117.816      91.295      65.659
  O     -115.956      90.370      67.204
  H     -110.643      91.745      62.631
  H     -115.928      89.579      66.613
  H     -115.620      96.581      64.604
  H     -115.025      94.219      64.147
  H     -113.382      93.205      61.041
  H     -111.515      93.791      63.064
  H     -113.103      93.056      64.769
  H     -113.478      90.626      62.897
  H     -114.459      99.277      62.338
  H     -115.735      90.499      63.994
  H     -115.334      98.933      63.811
  H     -114.363      90.104      65.060
  P     -110.912      92.192      65.943
  C     -109.275      94.225      66.043
  O     -109.959      93.273      65.244
  O     -109.913      91.039      66.418
  O     -111.742      92.735      67.063
  H     -110.256      90.592      67.216
  H     -108.689      94.863      65.415
  H     -108.634      93.717      66.733
  H     -109.986      94.813      66.584

 6  7  8  9  10  11  12  13  14  15  16  26  30  31  32  33  35 0
 6-311+G(2d,p)
 ****
 37  38 0
 6-311+G(2d,p)
 ****
 1  2  3  4  5  17  18  19  20  21  22  23  24  25 0
 3-21G
 ****
 27  28  29  34  36  39  40  41  42  43  44  45  46 0
 3-21G
 ****


