%nproc=1
%NoSave
%Mem=1900MB
#P OB98/GEN NMR

erre ene a

0 1
  C     -260.765    1194.307    -263.963
  O     -261.665    1193.252    -263.686
  P     -261.935    1192.079    -264.743
  C     -261.539    1190.509    -262.743
  O     -261.220    1190.790    -264.105
  C     -262.623    1189.424    -262.677
  O     -262.171    1188.278    -263.431
  C     -262.935    1188.888    -261.279
  O     -263.861    1189.674    -260.541
  C     -263.565    1187.541    -261.625
  O     -264.932    1187.743    -262.045
  C     -262.712    1187.087    -262.812
  N     -261.500    1182.324    -261.379
  C     -262.680    1182.883    -261.757
  N     -262.919    1184.160    -262.109
  C     -261.787    1184.884    -262.088
  C     -260.514    1184.449    -261.733
  C     -260.405    1183.093    -261.369
  N     -259.192    1182.522    -261.006
  N     -259.612    1185.482    -261.821
  C     -260.307    1186.518    -262.235
  N     -261.629    1186.205    -262.409
  O     -261.550    1192.406    -266.139
  O     -263.491    1191.750    -264.592
  H     -265.377    1188.259    -261.339
  H     -263.806    1191.244    -265.361
  H     -263.539    1182.221    -261.776
  H     -259.908    1187.504    -262.391
  H     -263.302    1186.563    -263.577
  H     -263.592    1186.855    -260.781
  H     -262.014    1188.713    -260.698
  H     -263.529    1189.805    -263.155
  H     -261.921    1191.423    -262.284
  H     -259.185    1181.518    -260.897
  H     -258.358    1183.048    -261.163
  H     -260.640    1190.198    -262.213
  P     -263.695    1189.700    -258.938
  C     -262.390    1191.955    -258.661
  O     -262.357    1190.544    -258.677
  O     -263.748    1188.362    -258.276
  O     -264.862    1190.694    -258.477
  H     -264.748    1191.618    -258.746
  H     -261.433    1192.336    -258.305
  H     -263.186    1192.328    -258.000
  H     -262.559    1192.342    -259.673
  H     -260.734    1194.977    -263.129
  H     -261.092    1194.836    -264.834
  H     -259.788    1193.906    -264.135

 3  4  5  6  7  8  9  10  11  12  22  25  29  30  31  32 0
 6-311+G(2d,p)
 ****
 33  36  37 0
 6-311+G(2d,p)
 ****
 1  2  13  14  15  16  17  18  19  20  21  23  24  26 0
 3-21G
 ****
 27  28  34  35  38  39  40  41  42  43  44  45  46  47  48 0
 3-21G
 ****


