%nproc=1
%NoSave
%Mem=1900MB
#P OB98/GEN NMR

erre ene a

0 1
  C     -230.470     482.553    -273.648
  O     -230.262     482.192    -275.019
  P     -229.052     481.186    -275.325
  C     -227.520     483.280    -275.145
  O     -227.792     482.057    -275.812
  C     -226.039     483.634    -275.266
  O     -225.199     482.609    -274.686
  C     -225.567     483.771    -276.709
  O     -226.004     484.990    -277.279
  C     -224.055     483.662    -276.523
  O     -223.511     484.916    -276.073
  C     -223.944     482.616    -275.402
  N     -220.479     478.848    -275.516
  C     -220.463     480.071    -274.939
  N     -221.429     481.016    -274.963
  C     -222.499     480.589    -275.645
  C     -222.661     479.372    -276.281
  C     -221.583     478.470    -276.201
  N     -221.595     477.227    -276.803
  N     -223.898     479.297    -276.892
  C     -224.463     480.467    -276.645
  N     -223.662     481.278    -275.893
  O     -229.524     480.426    -276.651
  O     -228.769     480.232    -274.211
  H     -224.016     485.181    -275.275
  H     -229.763     479.508    -276.439
  H     -219.557     480.330    -274.398
  H     -225.449     480.769    -276.995
  H     -223.151     482.867    -274.682
  H     -223.528     483.392    -277.441
  H     -225.932     482.924    -277.310
  H     -225.863     484.573    -274.728
  H     -227.802     483.206    -274.088
  H     -220.751     476.680    -276.761
  H     -222.379     476.977    -277.385
  H     -228.152     484.068    -275.577
  P     -227.457     485.018    -277.954
  C     -226.586     484.938    -280.373
  O     -227.199     485.730    -279.370
  O     -228.187     486.158    -277.113
  O     -228.153     483.696    -278.016
  H     -227.618     486.944    -276.995
  H     -226.501     485.532    -281.286
  H     -227.198     484.053    -280.577
  H     -225.586     484.639    -280.051
  H     -231.301     483.224    -273.578
  H     -229.592     483.032    -273.268
  H     -230.673     481.673    -273.074

 3  4  5  6  7  8  9  10  11  12  22  25  29  30  31  32 0
 6-311+G(2d,p)
 ****
 33  36  37 0
 6-311+G(2d,p)
 ****
 1  2  13  14  15  16  17  18  19  20  21  23  24  26 0
 3-21G
 ****
 27  28  34  35  38  39  40  41  42  43  44  45  46  47  48 0
 3-21G
 ****


