%nproc=1
%NoSave
%Mem=1900MB
#P OB98/GEN NMR

erre ene a

0 1
  C       44.651    -246.583    -132.523
  O       45.824    -247.312    -132.821
  H       44.937    -245.588    -132.168
  H       44.083    -247.086    -131.733
  H       44.028    -246.469    -133.413
  P       45.685    -248.764    -133.490
  C       44.840    -251.053    -132.662
  O       45.405    -249.799    -132.298
  C       43.740    -251.434    -131.672
  O       42.627    -250.517    -131.783
  C       43.158    -252.826    -131.900
  O       44.043    -253.826    -131.442
  C       41.851    -252.713    -131.130
  O       42.069    -252.873    -129.717
  C       41.428    -251.261    -131.453
  N       40.449    -251.184    -132.537
  C       39.111    -251.294    -132.166
  O       38.745    -251.455    -130.999
  N       38.202    -251.266    -133.191
  C       38.500    -251.225    -134.524
  O       37.671    -251.422    -135.407
  C       39.921    -251.030    -134.851
  C       40.816    -251.036    -133.862
  O       46.780    -249.156    -134.425
  O       44.269    -248.694    -134.242
  H       44.418    -248.543    -135.198
  H       41.195    -252.771    -129.290
  H       37.233    -251.395    -132.936
  H       40.195    -250.932    -135.897
  H       41.873    -250.921    -134.082
  H       40.995    -250.782    -130.566
  H       41.125    -253.471    -131.428
  H       42.930    -252.969    -132.965
  H       44.151    -251.345    -130.657
  H       45.630    -251.813    -132.640
  H       44.441    -250.986    -133.678
  P       44.047    -255.298    -132.076
  C       42.475    -257.318    -132.197
  O       42.700    -256.037    -131.617
  O       45.296    -256.083    -131.851
  O       43.804    -255.042    -133.644
  H       44.505    -255.497    -134.150
  H       41.556    -257.721    -131.826
  H       43.281    -257.973    -131.939
  H       42.419    -257.223    -133.261

 6  7  8  9  10  11  12  13  14  15  16  27  31  32  33  34  35 0
 6-311+G(2d,p)
 ****
 36  37 0
 6-311+G(2d,p)
 ****
 1  2  3  4  5  17  18  19  20  21  22  23  24  25 0
 3-21G
 ****
 26  28  29  30  38  39  40  41  42  43  44  45 0
 3-21G
 ****


