%nproc=1
%NoSave
%Mem=1900MB
#P OB98/GEN NMR

erre ene a

0 1
  C     -248.734     -95.122     496.099
  O     -248.241     -95.502     494.822
  P     -248.985     -96.627     493.950
  C     -249.100     -99.201     494.138
  O     -248.383     -98.017     494.470
  C     -248.141    -100.244     493.572
  O     -247.058    -100.461     494.495
  C     -248.759    -101.614     493.326
  O     -249.560    -101.610     492.155
  C     -247.522    -102.491     493.277
  O     -246.896    -102.397     491.989
  C     -246.622    -101.836     494.346
  N     -246.651    -102.544     495.620
  C     -245.878    -103.698     495.714
  O     -245.200    -104.092     494.765
  N     -245.856    -104.391     496.909
  C     -246.561    -103.969     497.908
  N     -246.446    -104.647     499.080
  C     -247.436    -102.781     497.836
  C     -247.431    -102.126     496.683
  O     -248.910     -96.425     492.479
  O     -250.475     -96.661     494.521
  H     -247.556    -102.675     491.328
  H     -251.085     -96.019     494.077
  H     -248.021    -102.481     498.701
  H     -248.031    -101.230     496.556
  H     -245.588    -101.788     493.996
  H     -247.727    -103.553     493.468
  H     -249.385    -101.905     494.184
  H     -247.712     -99.848     492.636
  H     -245.712    -105.344     499.135
  H     -249.847     -98.953     493.379
  H     -246.731    -104.231     499.964
  H     -249.609     -99.578     495.027
  P     -250.752    -102.690     492.062
  C     -250.869    -105.267     492.278
  O     -250.037    -104.122     492.115
  O     -251.256    -102.544     490.545
  O     -251.848    -102.472     493.049
  H     -252.073    -102.015     490.515
  H     -250.275    -106.157     492.055
  H     -251.714    -105.226     491.590
  H     -251.219    -105.325     493.309
  H     -248.103     -94.364     496.514
  H     -248.742     -95.974     496.746
  H     -249.729     -94.741     495.998

 3  4  5  6  7  8  9  10  11  12  13  23  27  28  29  30  32 0
 6-311+G(2d,p)
 ****
 34  35 0
 6-311+G(2d,p)
 ****
 1  2  14  15  16  17  18  19  20  21  22  24  25  26 0
 3-21G
 ****
 31  33  36  37  38  39  40  41  42  43  44  45  46 0
 3-21G
 ****


