%nproc=1
%NoSave
%Mem=1900MB
#P OB98/GEN NMR

erre ene a

0 1
  C     -391.766     833.786      85.437
  O     -392.746     834.762      85.776
  P     -393.396     835.615      84.579
  C     -395.394     836.008      86.184
  O     -394.472     836.579      85.279
  C     -396.248     837.080      86.845
  O     -396.958     837.851      85.852
  C     -397.317     836.549      87.790
  O     -396.814     836.254      89.077
  C     -398.253     837.755      87.870
  O     -397.724     838.736      88.770
  C     -398.207     838.282      86.429
  N     -402.947     839.324      84.803
  C     -402.141     839.961      85.683
  N     -400.901     839.610      86.072
  C     -400.512     838.464      85.485
  C     -401.249     837.697      84.594
  C     -402.514     838.169      84.239
  N     -403.329     837.530      83.326
  N     -400.519     836.589      84.208
  C     -399.369     836.693      84.840
  N     -399.309     837.813      85.613
  O     -394.300     834.542      83.819
  O     -392.413     836.270      83.665
  H     -397.730     838.333      89.665
  H     -394.447     834.817      82.888
  H     -402.541     840.857      86.126
  H     -398.550     835.977      84.751
  H     -398.221     839.392      86.392
  H     -399.254     837.496      88.222
  H     -397.858     835.696      87.346
  H     -395.570     837.770      87.392
  H     -394.850     835.445      86.948
  H     -404.147     838.031      82.990
  H     -402.934     836.783      82.762
  H     -396.038     835.294      85.632
  P     -397.169     834.790      89.668
  C     -394.790     835.012      90.715
  O     -396.117     834.562      90.852
  O     -396.661     833.800      88.516
  O     -398.605     834.606      90.000
  H     -397.154     832.953      88.546
  H     -394.314     835.065      91.688
  H     -394.760     836.004      90.258
  H     -394.221     834.311      90.076
  H     -391.424     833.300      86.327
  H     -390.940     834.263      84.952
  H     -392.197     833.062      84.778

 3  4  5  6  7  8  9  10  11  12  22  25  29  30  31  32 0
 6-311+G(2d,p)
 ****
 33  36  37 0
 6-311+G(2d,p)
 ****
 1  2  13  14  15  16  17  18  19  20  21  23  24  26 0
 3-21G
 ****
 27  28  34  35  38  39  40  41  42  43  44  45  46  47  48 0
 3-21G
 ****


