%nproc=1
%NoSave
%Mem=1900MB
#P OB98/GEN NMR

erre ene a

0 1
  C      -62.507    -224.266       5.385
  O      -61.830    -225.470       5.066
  P      -61.099    -225.623       3.648
  C      -63.373    -225.996       2.437
  O      -62.176    -225.253       2.523
  C      -63.563    -226.586       1.036
  O      -64.607    -227.590       1.106
  C      -64.027    -225.584      -0.026
  O      -63.760    -226.137      -1.320
  C      -65.517    -225.548       0.212
  O      -66.231    -225.040      -0.919
  C      -65.839    -227.009       0.605
  N      -66.901    -227.087       1.630
  C      -68.206    -226.855       1.197
  O      -68.499    -226.671       0.018
  N      -69.144    -226.752       2.194
  C      -68.892    -226.805       3.535
  O      -69.665    -226.419       4.394
  C      -67.546    -227.289       3.904
  C      -66.614    -227.379       2.952
  O      -60.928    -227.212       3.510
  O      -59.787    -224.913       3.534
  H      -67.192    -225.083      -0.685
  H      -60.039    -227.483       3.794
  H      -70.068    -226.441       1.889
  H      -67.354    -227.491       4.948
  H      -65.600    -227.684       3.208
  H      -66.165    -227.593      -0.266
  H      -65.731    -224.876       1.056
  H      -63.566    -224.592       0.065
  H      -62.641    -227.080       0.720
  H      -64.221    -225.349       2.700
  H      -63.367    -226.814       3.167
  P      -63.083    -225.183      -2.419
  C      -65.405    -224.311      -3.116
  O      -64.112    -223.966      -2.648
  O      -62.598    -225.853      -3.663
  O      -61.888    -224.480      -1.607
  H      -61.235    -224.111      -2.239
  H      -66.119    -223.570      -2.752
  H      -65.713    -225.305      -2.762
  H      -65.406    -224.297      -4.211
  H      -62.931    -224.344       6.364
  H      -63.286    -224.095       4.671
  H      -61.815    -223.450       5.360

 3  4  5  6  7  8  9  10  11  12  13  23  28  29  30  31  32 0
 6-311+G(2d,p)
 ****
 33  34 0
 6-311+G(2d,p)
 ****
 1  2  14  15  16  17  18  19  20  21  22  24  25  26  27 0
 3-21G
 ****
 35  36  37  38  39  40  41  42  43  44  45 0
 3-21G
 ****


