%nproc=1
%NoSave
%Mem=1900MB
#P OB98/GEN NMR

erre ene a

0 1
  C     -893.620     -65.284     245.611
  O     -894.000     -64.060     246.223
  H     -892.820     -65.079     244.905
  H     -894.470     -65.705     245.073
  H     -893.260     -65.990     246.365
  P     -895.040     -64.156     247.439
  C     -893.420     -63.976     249.490
  O     -894.220     -64.793     248.658
  C     -893.150     -64.667     250.831
  O     -894.430     -65.010     251.432
  C     -892.330     -65.949     250.716
  O     -891.470     -66.042     251.850
  C     -893.380     -67.052     250.774
  O     -892.820     -68.287     251.219
  C     -894.430     -66.424     251.707
  N     -895.760     -67.012     251.520
  C     -896.600     -67.032     252.623
  O     -896.200     -66.592     253.715
  N     -897.850     -67.585     252.507
  C     -898.190     -68.141     251.391
  N     -899.430     -68.696     251.338
  C     -897.320     -68.193     250.202
  C     -896.130     -67.595     250.327
  O     -896.000     -65.345     246.960
  O     -895.750     -62.877     247.742
  H     -892.200     -68.599     250.532
  H     -895.520     -66.086     246.549
  H     -897.640     -68.678     249.296
  H     -895.420     -67.585     249.505
  H     -894.140     -66.558     252.763
  H     -893.810     -67.218     249.781
  H     -891.740     -66.007     249.797
  H     -892.680     -63.945     251.505
  H     -900.000     -68.657     252.173
  H     -893.910     -63.009     249.670
  H     -899.790     -69.195     250.530
  H     -892.470     -63.791     248.967
  P     -889.890     -66.231     251.611
  C     -889.000     -63.956     252.431
  O     -889.240     -64.802     251.318
  O     -889.500     -67.312     250.668
  O     -889.350     -66.552     253.095
  H     -888.650     -67.231     253.011
  H     -888.566     -63.038     252.094
  H     -888.329     -64.440     253.109
  H     -889.924     -63.751     252.929

 6  7  8  9  10  11  12  13  14  15  16  26  30  31  32  33  35 0
 6-311+G(2d,p)
 ****
 37  38 0
 6-311+G(2d,p)
 ****
 1  2  3  4  5  17  18  19  20  21  22  23  24  25 0
 3-21G
 ****
 27  28  29  34  36  39  40  41  42  43  44  45  46 0
 3-21G
 ****


