%nproc=1
%NoSave
%Mem=1900MB
#P OB98/GEN NMR

erre ene a

0 1
  C       -0.538     -47.343     199.143
  O       -0.302     -48.247     200.201
  P       -0.030     -47.732     201.691
  C        2.467     -47.504     201.099
  O        1.516     -48.040     202.012
  C        3.825     -47.328     201.788
  O        4.807     -46.918     200.786
  C        3.799     -46.253     202.893
  O        4.301     -46.693     204.156
  C        4.558     -45.100     202.256
  O        5.085     -44.173     203.187
  C        5.565     -45.841     201.370
  N        6.168     -44.973     200.362
  C        7.047     -43.992     200.814
  O        7.349     -43.819     201.990
  N        7.540     -43.146     199.860
  C        7.164     -43.108     198.550
  O        7.572     -42.258     197.773
  C        6.204     -44.144     198.141
  C        5.773     -45.030     199.041
  O       -0.982     -48.233     202.725
  O       -0.024     -46.139     201.529
  H        4.345     -43.840     203.730
  H        0.649     -45.792     200.918
  H        8.177     -42.431     200.173
  H        5.879     -44.132     197.110
  H        5.066     -45.805     198.767
  H        6.363     -46.289     201.962
  H        3.853     -44.547     201.622
  H        2.772     -45.937     203.111
  H        4.124     -48.300     202.190
  H        2.113     -46.531     200.752
  H        2.549     -48.157     200.222
  P        3.416     -46.898     205.474
  C        2.741     -44.411     205.818
  O        3.443     -45.534     206.310
  O        3.724     -48.128     206.262
  O        1.917     -46.949     204.912
  H        1.367     -47.501     205.499
  H        3.240     -43.505     206.171
  H        1.721     -44.423     206.211
  H        2.714     -44.399     204.726
  H       -0.696     -47.889     198.236
  H        0.309     -46.699     199.029
  H       -1.406     -46.756     199.362

 3  4  5  6  7  8  9  10  11  12  13  23  28  29  30  31  32 0
 6-311+G(2d,p)
 ****
 33  34 0
 6-311+G(2d,p)
 ****
 1  2  14  15  16  17  18  19  20  21  22  24  25  26  27 0
 3-21G
 ****
 35  36  37  38  39  40  41  42  43  44  45 0
 3-21G
 ****


