%nproc=1
%NoSave
%Mem=1900MB
#P OB98/GEN NMR

erre ene a

0 1
  C      -98.053      -2.857      91.481
  O      -98.640      -2.293      92.636
  H      -96.971      -2.708      91.535
  H      -98.429      -2.355      90.587
  H      -98.257      -3.929      91.425
  P     -100.210      -2.493      92.885
  C     -100.485      -4.993      93.464
  O     -100.375      -3.669      93.967
  C     -100.067      -6.013      94.528
  O      -98.630      -5.931      94.710
  C     -100.726      -5.787      95.892
  O     -101.014      -7.051      96.489
  C      -99.650      -5.074      96.688
  O      -99.792      -5.278      98.092
  C      -98.375      -5.681      96.107
  N      -95.370      -3.425      99.485
  C      -96.383      -4.344      99.668
  N      -96.652      -4.703     100.942
  N      -97.077      -4.863      98.689
  C      -96.686      -4.428      97.466
  C      -95.698      -3.523      97.154
  C      -94.953      -2.940      98.249
  O      -94.055      -2.110      98.149
  N      -95.615      -3.327      95.797
  C      -96.549      -4.110      95.293
  N      -97.235      -4.790      96.265
  O     -101.028      -2.669      91.644
  O     -100.652      -1.189      93.696
  H      -99.600      -6.227      98.263
  H     -101.145      -0.572      93.126
  H      -94.875      -3.048     100.274
  H      -96.773      -4.217      94.240
  H      -98.106      -6.630      96.586
  H      -99.698      -3.995      96.493
  H      -96.142      -4.362     101.742
  H     -101.642      -5.200      95.816
  H      -97.371      -5.399     101.103
  H     -100.284      -7.019      94.149
  H      -99.832      -5.084      92.590
  H     -101.520      -5.176      93.153
  P     -102.502      -7.345      97.012
  C     -104.025      -7.259      94.944
  O     -103.320      -8.095      95.851
  O     -103.207      -6.181      97.627
  O     -102.275      -8.512      98.090
  H     -102.920      -8.401      98.816
  H     -104.529      -7.864      94.220
  H     -103.335      -6.609      94.448
  H     -104.742      -6.674      95.482

 6  7  8  9  10  11  12  13  14  15  26  29  33  34 0
 6-311+G(2d,p)
 ****
 36  38  39  40  41 0
 6-311+G(2d,p)
 ****
 1  2  3  4  5  16  17  18  19  20  21  22  23  24  25 0
 3-21G
 ****
 27  28  30  31  32  35  37  42  43  44  45  46  47 0
 3-21G
 ****
 48  49 0
 3-21G
 ****


