%nproc=1
%NoSave
%Mem=1900MB
#P OB98/GEN NMR

erre ene a

0 1
  C       -2.616     -14.064     -90.108
  O       -3.297     -13.191     -89.218
  P       -4.904     -13.163     -89.289
  C       -5.128     -12.112     -91.653
  O       -5.271     -11.930     -90.251
  C       -5.364     -10.799     -92.393
  O       -6.514     -10.123     -91.842
  C       -4.220      -9.801     -92.296
  O       -3.187     -10.076     -93.230
  C       -4.932      -8.507     -92.654
  O       -5.095      -8.422     -94.086
  C       -6.294      -8.694     -91.981
  N       -9.334      -6.205     -88.707
  C       -9.533      -6.635     -89.971
  N       -8.670      -7.281     -90.781
  C       -7.478      -7.440     -90.179
  C       -7.119      -7.021     -88.909
  C       -8.112      -6.382     -88.146
  N       -7.916      -5.970     -86.851
  N       -5.809      -7.360     -88.639
  C       -5.389      -7.981     -89.721
  N       -6.366      -8.064     -90.677
  O       -5.317     -12.635     -87.834
  O       -5.542     -14.468     -89.617
  H       -4.211      -8.556     -94.477
  H       -6.231     -12.913     -87.627
  H      -10.522      -6.442     -90.383
  H       -4.397      -8.395     -89.852
  H       -7.117      -8.296     -92.584
  H       -4.380      -7.617     -92.347
  H       -3.835      -9.733     -91.270
  H       -5.584     -11.036     -93.444
  H       -5.856     -12.853     -91.996
  H       -8.725      -5.693     -86.314
  H       -7.077      -6.284     -86.372
  H       -4.121     -12.490     -91.864
  P       -1.684      -9.739     -92.773
  C       -1.605      -7.384     -93.868
  O       -1.131      -8.720     -93.872
  O       -0.900     -11.101     -93.078
  O       -1.561      -9.312     -91.349
  H       -0.116     -11.177     -92.500
  H       -0.920      -6.765     -94.452
  H       -1.658      -6.986     -92.852
  H       -2.596      -7.343     -94.330
  H       -1.561     -13.980     -89.952
  H       -2.850     -13.797     -91.118
  H       -2.925     -15.072     -89.925

 3  4  5  6  7  8  9  10  11  12  22  25  29  30  31  32 0
 6-311+G(2d,p)
 ****
 33  36  37 0
 6-311+G(2d,p)
 ****
 1  2  13  14  15  16  17  18  19  20  21  23  24  26 0
 3-21G
 ****
 27  28  34  35  38  39  40  41  42  43  44  45  46  47  48 0
 3-21G
 ****


