%nproc=1
%NoSave
%Mem=1900MB
#P OB98/GEN NMR

erre ene a

0 1
  C       43.777     149.265    -189.933
  O       44.744     149.637    -188.976
  H       42.798     149.615    -189.598
  H       43.744     148.177    -190.029
  H       44.001     149.717    -190.904
  P       46.284     149.364    -189.336
  C       46.822     151.607    -188.143
  O       47.158     150.237    -188.308
  C       47.007     152.028    -186.685
  O       46.197     151.166    -185.845
  C       48.455     151.936    -186.197
  O       48.716     153.041    -185.328
  C       48.484     150.646    -185.398
  O       49.514     150.634    -184.411
  C       47.057     150.597    -184.838
  N       46.663     149.233    -184.497
  C       47.184     148.704    -183.314
  O       47.946     149.380    -182.617
  N       46.884     147.412    -182.974
  C       46.192     146.678    -183.789
  N       45.950     145.394    -183.410
  C       45.676     147.170    -185.082
  C       45.940     148.447    -185.366
  O       46.481     150.130    -190.725
  O       46.677     147.928    -189.417
  H       49.222     151.184    -183.652
  H       47.141     149.680    -191.287
  H       45.127     146.514    -185.738
  H       45.609     148.894    -186.294
  H       46.973     151.222    -183.939
  H       48.655     149.800    -186.075
  H       49.186     151.934    -187.011
  H       46.619     153.047    -186.566
  H       46.336     145.088    -182.524
  H       45.775     151.754    -188.426
  H       45.464     144.722    -183.983
  H       47.453     152.217    -188.800
  P       49.128     154.425    -186.023
  C       47.952     156.256    -184.605
  O       49.159     155.563    -184.896
  O       47.843     154.792    -186.902
  O       50.360     154.331    -186.862
  H       48.039     154.673    -187.849
  H       48.132     156.979    -183.837
  H       47.212     155.559    -184.272
  H       47.604     156.752    -185.487

 6  7  8  9  10  11  12  13  14  15  16  26  30  31  32  33  35 0
 6-311+G(2d,p)
 ****
 37  38 0
 6-311+G(2d,p)
 ****
 1  2  3  4  5  17  18  19  20  21  22  23  24  25 0
 3-21G
 ****
 27  28  29  34  36  39  40  41  42  43  44  45  46 0
 3-21G
 ****


