%nproc=1
%NoSave
%Mem=1900MB
#P OB98/GEN NMR

erre ene a

0 1
  C       -4.524     -39.791      44.310
  O       -4.852     -39.296      43.027
  H       -3.723     -39.177      44.730
  H       -4.174     -40.824      44.237
  H       -5.393     -39.738      44.972
  P       -6.044     -40.038      42.251
  C       -7.643     -38.082      42.865
  O       -7.408     -39.484      42.890
  C       -8.557     -37.733      41.694
  O       -9.809     -38.444      41.832
  C       -8.932     -36.257      41.610
  O       -7.898     -35.479      41.034
  C      -10.192     -36.320      40.757
  O       -9.879     -36.378      39.359
  C      -10.833     -37.640      41.205
  N      -15.910     -37.459      41.603
  C      -15.095     -37.759      40.568
  N      -13.746     -37.803      40.550
  C      -13.249     -37.505      41.761
  C      -13.953     -37.172      42.905
  C      -15.353     -37.158      42.799
  N      -16.181     -36.818      43.843
  N      -13.086     -36.886      43.941
  C      -11.881     -37.050      43.435
  N      -11.932     -37.429      42.123
  O       -5.949     -41.539      42.803
  O       -5.968     -39.982      40.763
  H       -9.181     -37.054      39.257
  H       -5.418     -42.080      42.189
  H      -15.593     -37.990      39.630
  H      -10.952     -36.900      43.971
  H      -11.223     -38.219      40.359
  H      -10.821     -35.443      40.912
  H       -9.197     -35.876      42.604
  H       -8.077     -38.066      40.765
  H       -6.689     -37.557      42.745
  H       -8.100     -37.782      43.814
  H      -17.177     -36.807      43.688
  H      -15.772     -36.489      44.707
  P       -7.718     -33.966      41.522
  C       -5.856     -34.683      43.188
  O       -7.085     -34.000      42.995
  O       -9.223     -33.478      41.766
  O       -6.994     -33.083      40.560
  H       -9.535     -32.946      41.011
  H       -5.568     -34.616      44.216
  H       -5.100     -34.237      42.576
  H       -5.973     -35.712      42.917

 6  7  8  9  10  11  12  13  14  15  25  28  32  33  34  35 0
 6-311+G(2d,p)
 ****
 36  37  40 0
 6-311+G(2d,p)
 ****
 1  2  3  4  5  16  17  18  19  20  21  22  23  24 0
 3-21G
 ****
 26  27  29  30  31  38  39 41  42  43  44  45  46  47  48 0
 3-21G
 ****


