%nproc=1
%NoSave
%Mem=1900MB
#P OB98/GEN NMR

erre ene a

0 1
  C      -34.805      33.949      76.132
  O      -35.689      34.813      76.816
  H      -35.354      33.052      75.830
  H      -33.983      33.653      76.790
  H      -34.409      34.438      75.238
  P      -35.087      36.216      77.310
  C      -34.356      35.335      79.646
  O      -33.952      35.864      78.388
  C      -33.131      35.098      80.525
  O      -32.203      34.232      79.833
  C      -32.345      36.361      80.855
  O      -32.949      37.104      81.901
  C      -30.990      35.775      81.233
  O      -30.968      35.336      82.597
  C      -30.876      34.568      80.292
  N      -26.043      35.372      78.883
  C      -26.597      35.063      80.076
  N      -27.898      34.845      80.366
  C      -28.652      34.967      79.260
  C      -28.231      35.284      77.980
  C      -26.853      35.489      77.805
  N      -26.293      35.839      76.598
  N      -29.308      35.363      77.120
  C      -30.361      35.088      77.864
  N      -30.010      34.838      79.162
  O      -36.276      36.823      78.196
  O      -34.667      37.148      76.222
  H      -30.134      34.841      82.718
  H      -36.819      37.421      77.648
  H      -25.904      34.984      80.911
  H      -31.386      35.067      77.517
  H      -30.477      33.682      80.803
  H      -30.193      36.511      81.117
  H      -32.224      36.980      79.957
  H      -33.453      34.588      81.443
  H      -34.876      34.383      79.487
  H      -35.043      36.042      80.123
  H      -25.298      35.994      76.552
  H      -26.900      36.035      75.813
  P      -33.186      38.673      81.683
  C      -31.324      39.519      83.290
  O      -31.792      39.419      81.953
  O      -34.087      39.085      82.940
  O      -33.836      39.033      80.388
  H      -35.026      39.150      82.681
  H      -30.389      40.040      83.303
  H      -31.191      38.538      83.696
  H      -32.039      40.055      83.879

 6  7  8  9  10  11  12  13  14  15  25  28  32  33  34  35 0
 6-311+G(2d,p)
 ****
 36  37  40 0
 6-311+G(2d,p)
 ****
 1  2  3  4  5  16  17  18  19  20  21  22  23  24 0
 3-21G
 ****
 26  27  29  30  31  38  39 41  42  43  44  45  46  47  48 0
 3-21G
 ****


