%nproc=1
%NoSave
%Mem=1900MB
#P OB98/GEN NMR

erre ene a

0 1
  C     -893.115     394.059     -44.502
  O     -894.315     393.843     -43.795
  H     -893.355     394.337     -45.533
  H     -892.505     393.154     -44.533
  H     -892.535     394.871     -44.050
  P     -894.215     393.267     -42.298
  C     -893.785     390.764     -42.781
  O     -894.725     391.752     -42.378
  C     -894.305     389.380     -42.375
  O     -894.185     389.200     -40.944
  C     -895.765     389.156     -42.691
  O     -895.955     388.927     -44.082
  C     -896.105     387.993     -41.781
  O     -895.665     386.745     -42.328
  C     -895.295     388.357     -40.525
  N     -896.095     389.014     -39.488
  C     -895.865     388.571     -38.185
  O     -895.035     387.709     -37.943
  N     -896.645     389.139     -37.172
  C     -897.515     390.054     -37.439
  N     -898.225     390.556     -36.407
  C     -897.775     390.538     -38.817
  C     -897.035     389.983     -39.792
  O     -894.835     394.092     -41.216
  O     -892.625     393.099     -42.066
  H     -895.825     386.067     -41.632
  H     -892.245     393.916     -41.697
  H     -898.505     391.306     -39.002
  H     -897.155     390.275     -40.813
  H     -894.835     387.452     -40.083
  H     -897.175     387.910     -41.602
  H     -896.365     390.030     -42.383
  H     -893.675     388.616     -42.855
  H     -898.045     390.200     -35.479
  H     -892.845     390.978     -42.276
  H     -898.875     391.331     -36.489
  H     -893.635     390.805     -43.860
  P     -896.715     389.985     -45.004
  C     -899.065     389.346     -44.151
  O     -898.185     389.371     -45.257
  O     -895.975     390.392     -46.245
  O     -897.005     391.185     -43.994
  H     -896.185     391.702     -43.800
  H     -900.000     388.918     -44.448
  H     -899.225     390.344     -43.800
  H     -898.637     388.757     -43.367

 6  7  8  9  10  11  12  13  14  15  16  26  30  31  32  33  35 0
 6-311+G(2d,p)
 ****
 37  38 0
 6-311+G(2d,p)
 ****
 1  2  3  4  5  17  18  19  20  21  22  23  24  25 0
 3-21G
 ****
 27  28  29  34  36  39  40  41  42  43  44  45  46 0
 3-21G
 ****


