%nproc=1
%NoSave
%Mem=1900MB
#P OB98/GEN NMR

erre ene a

0 1
  C      572.822     -42.110    -135.704
  O      574.177     -42.300    -136.048
  H      572.666     -42.472    -134.686
  H      572.184     -42.680    -136.382
  H      572.547     -41.053    -135.744
  P      574.753     -41.568    -137.349
  C      576.045     -39.851    -135.919
  O      575.075     -40.054    -136.938
  C      576.039     -38.392    -135.447
  O      574.736     -38.078    -134.900
  C      577.061     -38.161    -134.326
  O      577.536     -36.821    -134.302
  C      576.244     -38.417    -133.071
  O      576.788     -37.791    -131.910
  C      574.875     -37.874    -133.483
  N      572.028     -37.989    -129.258
  C      573.207     -37.311    -129.497
  N      573.686     -36.561    -128.476
  N      573.863     -37.381    -130.624
  C      573.308     -38.220    -131.529
  C      572.156     -38.965    -131.398
  C      571.416     -38.856    -130.157
  O      570.382     -39.452    -129.886
  N      571.914     -39.707    -132.526
  C      572.912     -39.419    -133.333
  N      573.774     -38.500    -132.782
  O      573.467     -41.404    -138.292
  O      575.864     -42.286    -138.055
  H      576.454     -38.280    -131.135
  H      573.741     -41.300    -139.221
  H      571.544     -37.882    -128.381
  H      573.052     -39.833    -134.324
  H      574.816     -36.795    -133.292
  H      576.235     -39.494    -132.881
  H      573.317     -36.644    -127.542
  H      577.908     -38.838    -134.386
  H      574.679     -36.320    -128.520
  H      576.198     -37.720    -136.300
  H      577.015     -40.111    -136.349
  H      575.866     -40.527    -135.084
  P      579.057     -36.542    -134.718
  C      578.618     -35.169    -136.940
  O      579.157     -36.301    -136.295
  O      579.779     -37.947    -134.497
  O      579.720     -35.447    -133.940
  H      580.443     -37.886    -133.791
  H      578.810     -35.232    -137.991
  H      579.073     -34.284    -136.547
  H      577.562     -35.132    -136.772

 6  7  8  9  10  11  12  13  14  15  26  29  33  34 0
 6-311+G(2d,p)
 ****
 36  38  39  40  41 0
 6-311+G(2d,p)
 ****
 1  2  3  4  5  16  17  18  19  20  21  22  23  24  25 0
 3-21G
 ****
 27  28  30  31  32  35  37  42  43  44  45  46  47 0
 3-21G
 ****
 48  49 0
 3-21G
 ****


