%nproc=1
%NoSave
%Mem=1900MB
#P OB98/GEN NMR

erre ene a

0 1
  C      -82.189     273.631     107.513
  O      -83.357     273.944     106.742
  P      -83.568     275.344     105.985
  C      -86.106     275.846     106.079
  O      -85.025     275.330     105.310
  C      -87.427     275.194     105.662
  O      -87.629     275.333     104.236
  C      -87.517     273.696     105.906
  O      -87.677     273.378     107.275
  C      -88.712     273.323     105.029
  O      -89.952     273.543     105.716
  C      -88.579     274.311     103.856
  N      -88.185     273.668     102.613
  C      -89.130     273.662     101.583
  O      -90.260     274.111     101.771
  N      -88.772     273.132     100.368
  C      -87.616     272.562     100.229
  N      -87.309     272.070      98.998
  C      -86.645     272.426     101.331
  C      -86.989     272.998     102.482
  O      -82.470     275.691     105.035
  O      -83.692     276.437     107.147
  H      -83.411     277.307     106.808
  H      -90.663     273.459     105.050
  H      -85.709     271.906     101.183
  H      -86.328     272.958     103.341
  H      -89.526     274.842     103.700
  H      -88.691     272.270     104.730
  H      -86.615     273.211     105.513
  H      -88.242     275.715     106.183
  H      -87.993     272.189      98.262
  H      -86.173     276.926     105.901
  H      -86.429     271.629      98.777
  H      -85.904     275.680     107.141
  P      -86.710     272.250     107.878
  C      -87.915     270.970     109.787
  O      -87.089     272.058     109.423
  O      -85.277     272.965     107.921
  O      -86.661     270.987     107.082
  H      -84.585     272.327     107.672
  H      -87.689     270.689     110.819
  H      -87.755     270.104     109.139
  H      -88.962     271.279     109.728
  H      -82.282     272.644     107.917
  H      -82.090     274.336     108.312
  H      -81.324     273.679     106.885

 3  4  5  6  7  8  9  10  11  12  13  24  27  28  29  30  32 0
 6-311+G(2d,p)
 ****
 34  35 0
 6-311+G(2d,p)
 ****
 1  2  14  15  16  17  18  19  20  21  22  23  25  26 0
 3-21G
 ****
 31  33  36  37  38  39  40  41  42  43  44  45  46 0
 3-21G
 ****


