%nproc=1
%NoSave
%Mem=1900MB
#P OB98/GEN NMR

erre ene a

0 1
  C     -446.821    -505.785     526.138
  O     -446.852    -505.862     524.725
  P     -448.121    -506.474     523.970
  C     -446.777    -508.368     522.879
  O     -447.588    -507.218     522.647
  C     -445.549    -508.377     521.967
  O     -445.985    -508.489     520.585
  C     -444.667    -507.120     522.066
  O     -443.315    -507.549     521.857
  C     -445.127    -506.290     520.876
  O     -444.173    -505.324     520.470
  C     -445.378    -507.402     519.859
  N     -445.622    -505.979     514.949
  C     -444.572    -506.283     515.744
  N     -444.588    -506.629     517.051
  C     -445.843    -506.646     517.518
  C     -447.008    -506.324     516.837
  C     -446.867    -505.998     515.476
  N     -447.924    -505.715     514.643
  N     -448.103    -506.399     517.684
  C     -447.608    -506.757     518.851
  N     -446.252    -506.975     518.784
  O     -449.242    -505.518     523.730
  O     -448.587    -507.687     524.905
  H     -444.629    -504.598     520.007
  H     -449.404    -507.446     525.382
  H     -443.602    -506.260     515.273
  H     -448.171    -506.868     519.769
  H     -444.446    -507.773     519.409
  H     -446.052    -505.767     521.127
  H     -444.763    -506.582     523.011
  H     -444.967    -509.272     522.195
  H     -447.388    -509.251     522.671
  H     -447.726    -505.620     513.658
  H     -448.862    -505.977     514.940
  H     -446.474    -508.400     523.932
  P     -442.133    -506.921     522.747
  C     -440.658    -505.972     520.872
  O     -440.811    -506.986     521.850
  O     -442.011    -507.475     524.127
  O     -442.473    -505.346     522.761
  H     -441.986    -504.917     523.487
  H     -441.263    -506.225     519.995
  H     -439.608    -505.914     520.579
  H     -440.977    -505.002     521.263
  H     -445.895    -505.349     526.451
  H     -446.910    -506.768     526.551
  H     -447.634    -505.180     526.480

 3  4  5  6  7  8  9  10  11  12  22  25  29  30  31  32 0
 6-311+G(2d,p)
 ****
 33  36  37 0
 6-311+G(2d,p)
 ****
 1  2  13  14  15  16  17  18  19  20  21  23  24  26 0
 3-21G
 ****
 27  28  34  35  38  39  40  41  42  43  44  45  46  47  48 0
 3-21G
 ****


