%nproc=1
%NoSave
%Mem=1900MB
#P OB98/GEN NMR

erre ene a

0 1
  C      163.233    -129.241    -189.754
  O      162.002    -129.097    -189.030
  P      161.381    -130.416    -188.358
  C      160.616    -129.582    -185.987
  O      160.260    -129.892    -187.335
  C      159.541    -128.706    -185.351
  O      159.595    -127.361    -185.896
  C      158.111    -129.187    -185.593
  O      157.803    -130.319    -184.801
  C      157.323    -127.924    -185.252
  O      157.169    -127.795    -183.834
  C      158.261    -126.813    -185.790
  N      157.812    -126.245    -187.054
  C      156.850    -125.238    -186.970
  O      156.382    -124.846    -185.891
  N      156.436    -124.695    -188.155
  C      156.847    -125.083    -189.392
  O      156.446    -124.555    -190.434
  C      157.827    -126.194    -189.438
  C      158.256    -126.712    -188.282
  O      162.591    -130.888    -187.418
  O      160.923    -131.425    -189.361
  H      163.088    -130.135    -187.041
  H      156.696    -128.601    -183.536
  H      155.750    -123.961    -188.114
  H      158.159    -126.536    -190.407
  H      158.970    -127.532    -188.287
  H      158.323    -125.992    -185.056
  H      156.319    -127.926    -185.702
  H      157.976    -129.430    -186.661
  H      159.738    -128.643    -184.268
  H      161.575    -129.057    -185.961
  H      160.737    -130.521    -185.437
  P      156.717    -131.347    -185.385
  C      158.308    -133.117    -186.479
  O      157.431    -132.781    -185.429
  O      156.660    -130.894    -186.923
  O      155.404    -131.299    -184.685
  H      157.546    -130.741    -187.303
  H      158.942    -133.954    -186.164
  H      158.950    -132.273    -186.745
  H      157.734    -133.428    -187.357
  H      163.530    -128.290    -190.146
  H      163.094    -129.931    -190.560
  H      163.993    -129.609    -189.096

 3  4  5  6  7  8  9  10  11  12  13  24  28  29  30  31  32 0
 6-311+G(2d,p)
 ****
 33  34 0
 6-311+G(2d,p)
 ****
 1  2  14  15  16  17  18  19  20  21  22  23  25  26  27 0
 3-21G
 ****
 35  36  37  38  39  40  41  42  43  44  45 0
 3-21G
 ****


