%nproc=1
%NoSave
%Mem=1900MB
#P OB98/GEN NMR

erre ene a

0 1
  C     -889.990     309.896    -992.036
  O     -891.110     309.635    -992.878
  P     -892.530     309.404    -992.169
  C     -893.620     307.490    -990.784
  O     -892.510     307.935    -991.543
  C     -893.800     305.979    -990.937
  O     -892.630     305.279    -990.385
  C     -894.980     305.400    -990.157
  O     -896.200     305.671    -990.824
  C     -894.580     303.928    -990.104
  O     -894.870     303.303    -991.356
  C     -893.080     304.008    -989.897
  N     -892.590     300.760    -985.956
  C     -893.040     300.563    -987.202
  N     -893.160     301.502    -988.208
  C     -892.750     302.708    -987.766
  C     -892.280     303.057    -986.505
  C     -892.210     302.014    -985.583
  N     -891.750     302.190    -984.267
  N     -891.970     304.400    -986.433
  C     -892.220     304.847    -987.623
  N     -892.660     303.876    -988.486
  O     -893.550     309.292    -993.420
  O     -892.930     310.512    -991.215
  H     -894.780     302.329    -991.224
  H     -894.410     309.672    -993.171
  H     -893.340     299.574    -987.489
  H     -892.120     305.906    -987.933
  H     -892.510     303.218    -990.460
  H     -895.110     303.371    -989.319
  H     -895.030     305.817    -989.127
  H     -893.870     305.724    -992.010
  H     -894.540     307.975    -991.153
  H     -891.850     301.410    -983.648
  H     -891.610     303.148    -983.963
  H     -893.500     307.803    -989.740
  P     -897.540     305.734    -989.944
  C     -899.240     303.938    -989.225
  O     -897.950     304.181    -989.777
  O     -898.610     306.274    -990.997
  O     -897.430     306.529    -988.681
  H     -898.560     305.760    -991.839
  H     -899.430     302.860    -989.200
  H     -900.000     304.436    -989.868
  H     -899.310     304.324    -988.188
  H     -889.115     310.029    -992.637
  H     -889.844     309.071    -991.371
  H     -890.171     310.784    -991.467

 3  4  5  6  7  8  9  10  11  12  22  25  29  30  31  32 0
 6-311+G(2d,p)
 ****
 33  36  37 0
 6-311+G(2d,p)
 ****
 1  2  13  14  15  16  17  18  19  20  21  23  24  26 0
 3-21G
 ****
 27  28  34  35  38  39  40  41  42  43  44  45  46  47  48 0
 3-21G
 ****


