%nproc=1
%NoSave
%Mem=1900MB
#P OB98/GEN NMR

erre ene a

0 1
  C      633.787    1145.720     209.700
  O      635.171    1145.436     209.693
  H      633.503    1146.111     208.720
  H      633.567    1146.472     210.454
  H      633.206    1144.815     209.902
  P      635.768    1144.630     210.947
  C      636.524    1142.599     209.508
  O      635.698    1143.079     210.567
  C      637.401    1141.458     210.007
  O      638.564    1142.033     210.681
  C      636.714    1140.517     211.003
  O      637.197    1139.192     210.776
  C      637.230    1140.999     212.351
  O      637.173    1140.028     213.373
  C      638.655    1141.406     211.991
  N      639.248    1142.318     212.961
  C      639.938    1141.751     214.032
  O      640.158    1140.553     214.166
  N      640.384    1142.636     214.979
  C      640.192    1143.989     214.977
  O      640.601    1144.723     215.873
  C      639.453    1144.525     213.823
  C      639.015    1143.682     212.890
  O      634.617    1144.801     212.054
  O      637.100    1145.094     211.430
  H      634.773    1145.600     212.582
  H      637.730    1139.267     213.099
  H      640.890    1142.240     215.757
  H      639.273    1145.594     213.802
  H      638.447    1144.040     212.040
  H      639.293    1140.524     211.873
  H      636.649    1141.878     212.672
  H      635.620    1140.533     210.950
  H      637.792    1140.902     209.140
  H      637.159    1143.408     209.160
  H      635.881    1142.256     208.688
  P      636.097    1138.068     210.431
  C      636.976    1137.670     207.988
  O      635.932    1138.120     208.834
  O      634.765    1138.737     210.991
  O      636.429    1136.730     211.007
  H      634.755    1139.704     210.883
  H      636.681    1137.783     206.966
  H      637.178    1136.639     208.189
  H      637.858    1138.248     208.171

 6  7  8  9  10  11  12  13  14  15  16  27  31  32  33  34  35 0
 6-311+G(2d,p)
 ****
 36  37 0
 6-311+G(2d,p)
 ****
 1  2  3  4  5  17  18  19  20  21  22  23  24  25 0
 3-21G
 ****
 26  28  29  30  38  39  40  41  42  43  44  45 0
 3-21G
 ****


