%nproc=1
%NoSave
%Mem=1900MB
#P OB98/GEN NMR

erre ene a

0 1
  C     -404.129     238.500     -30.198
  O     -402.932     237.938     -30.730
  P     -403.002     236.484     -31.399
  C     -400.654     235.314     -31.026
  O     -401.542     236.026     -31.863
  C     -399.347     236.115     -30.878
  O     -399.407     236.958     -29.710
  C     -398.116     235.229     -30.734
  O     -397.585     234.846     -31.989
  C     -397.185     236.114     -29.927
  O     -396.579     237.109     -30.772
  C     -398.179     236.774     -28.941
  N     -398.505     236.055     -27.692
  C     -397.524     235.887     -26.716
  O     -396.372     236.300     -26.814
  N     -397.914     235.224     -25.581
  C     -399.189     234.871     -25.254
  O     -399.489     234.331     -24.192
  C     -400.213     235.206     -26.248
  C     -399.831     235.758     -27.402
  O     -403.775     236.736     -32.775
  O     -403.678     235.447     -30.558
  H     -396.158     236.637     -31.514
  H     -404.633     236.269     -32.771
  H     -397.201     235.027     -24.893
  H     -401.244     234.986     -26.007
  H     -400.578     236.007     -28.150
  H     -397.826     237.771     -28.648
  H     -396.366     235.540     -29.496
  H     -398.353     234.347     -30.125
  H     -399.238     236.763     -31.755
  H     -400.443     234.326     -31.438
  H     -401.119     235.161     -30.047
  P     -397.612     233.306     -32.428
  C     -395.133     232.814     -32.869
  O     -396.383     233.123     -33.449
  O     -398.927     232.781     -32.903
  O     -397.091     232.530     -31.125
  H     -397.848     232.202     -30.588
  H     -394.426     232.562     -33.667
  H     -395.226     231.952     -32.196
  H     -394.750     233.674     -32.313
  H     -403.919     239.466     -29.790
  H     -404.510     237.863     -29.428
  H     -404.857     238.593     -30.977

 3  4  5  6  7  8  9  10  11  12  13  23  28  29  30  31  32 0
 6-311+G(2d,p)
 ****
 33  34 0
 6-311+G(2d,p)
 ****
 1  2  14  15  16  17  18  19  20  21  22  24  25  26  27 0
 3-21G
 ****
 35  36  37  38  39  40  41  42  43  44  45 0
 3-21G
 ****


