%nproc=1
%NoSave
%Mem=1900MB
#P OB98/GEN NMR

erre ene a

0 1
  C     -620.437    -448.726    -559.964
  O     -620.142    -449.927    -559.284
  H     -621.117    -448.132    -559.348
  H     -620.928    -448.934    -560.923
  H     -619.523    -448.150    -560.131
  P     -619.248    -451.032    -560.037
  C     -620.347    -452.957    -558.702
  O     -619.141    -452.290    -559.045
  C     -620.315    -453.426    -557.238
  O     -619.184    -454.327    -557.062
  C     -620.144    -452.285    -556.222
  O     -620.800    -452.690    -555.009
  C     -618.637    -452.270    -556.034
  O     -618.263    -451.525    -554.903
  C     -618.342    -453.777    -556.023
  N     -616.938    -454.070    -556.239
  C     -616.029    -453.447    -555.365
  O     -616.445    -452.689    -554.485
  N     -614.694    -453.678    -555.525
  C     -614.278    -454.408    -556.515
  N     -612.933    -454.583    -556.635
  C     -615.191    -455.040    -557.492
  C     -616.498    -454.837    -557.294
  O     -617.943    -450.555    -560.583
  O     -620.212    -451.572    -561.197
  H     -617.286    -451.440    -554.846
  H     -619.922    -451.203    -562.060
  H     -614.795    -455.618    -558.312
  H     -617.243    -455.258    -557.957
  H     -618.658    -454.229    -555.070
  H     -618.149    -451.796    -556.890
  H     -620.546    -451.328    -556.570
  H     -621.222    -454.012    -557.037
  H     -612.347    -454.127    -555.940
  H     -620.449    -453.819    -559.368
  H     -612.494    -455.114    -557.375
  H     -621.206    -452.289    -558.845
  P     -622.353    -452.432    -554.731
  C     -623.274    -451.468    -552.524
  O     -622.648    -452.581    -553.164
  O     -623.269    -453.241    -555.604
  O     -622.571    -450.858    -555.004
  H     -623.477    -450.719    -555.338
  H     -623.417    -451.687    -551.487
  H     -624.222    -451.280    -552.983
  H     -622.652    -450.603    -552.623

 6  7  8  9  10  11  12  13  14  15  16  26  30  31  32  33  35 0
 6-311+G(2d,p)
 ****
 37  38 0
 6-311+G(2d,p)
 ****
 1  2  3  4  5  17  18  19  20  21  22  23  24  25 0
 3-21G
 ****
 27  28  29  34  36  39  40  41  42  43  44  45  46 0
 3-21G
 ****


