%nproc=1
%NoSave
%Mem=1900MB
#P OB98/GEN NMR

erre ene a

0 1
  C     -831.914    -892.240    1446.351
  O     -832.239    -893.230    1447.351
  P     -831.963    -894.760    1447.026
  C     -830.681    -895.520    1449.188
  O     -830.626    -895.210    1447.795
  C     -829.492    -894.880    1449.917
  O     -829.562    -893.450    1449.882
  C     -829.449    -895.260    1451.404
  O     -828.818    -896.520    1451.605
  C     -828.565    -894.160    1451.960
  O     -827.174    -894.460    1451.678
  C     -829.024    -892.940    1451.154
  N     -829.989    -888.350    1453.078
  C     -828.860    -888.850    1452.427
  N     -827.839    -887.970    1452.268
  N     -828.758    -890.060    1451.971
  C     -829.854    -890.820    1452.186
  C     -831.034    -890.460    1452.812
  C     -831.127    -889.110    1453.334
  O     -832.097    -888.640    1453.920
  N     -831.915    -891.510    1452.852
  C     -831.273    -892.470    1452.231
  N     -830.026    -892.130    1451.812
  O     -831.498    -894.730    1445.502
  O     -833.150    -895.650    1447.248
  H     -826.959    -895.290    1452.192
  H     -831.738    -895.580    1445.055
  H     -830.017    -887.420    1453.407
  H     -831.707    -893.480    1452.049
  H     -828.200    -892.260    1450.880
  H     -828.651    -894.050    1453.043
  H     -827.884    -886.990    1452.543
  H     -830.453    -895.220    1451.852
  H     -827.028    -888.290    1451.766
  H     -828.571    -895.200    1449.432
  H     -830.676    -896.610    1449.311
  H     -831.657    -895.180    1449.571
  P     -829.751    -897.830    1451.636
  C     -828.273    -899.310    1450.067
  O     -829.509    -898.590    1450.249
  O     -831.218    -897.230    1451.450
  O     -829.636    -898.640    1452.856
  H     -831.878    -897.770    1451.936
  H     -828.333    -899.870    1449.136
  H     -828.136    -900.000    1450.900
  H     -827.427    -898.600    1450.001
  H     -832.158    -891.266    1446.721
  H     -832.476    -892.434    1445.461
  H     -830.868    -892.286    1446.130

 3  4  5  6  7  8  9  10  11  12  23  26  30  31 0
 6-311+G(2d,p)
 ****
 33  35  36  37  38 0
 6-311+G(2d,p)
 ****
 1  2  13  14  15  16  17  18  19  20  21  22  24  25 0
 3-21G
 ****
 27  28  29  32  34  39  40  41  42  43  44  45  46  47  48  49 0
 3-21G
 ****


