%nproc=1
%NoSave
%Mem=1900MB
#P OB98/GEN NMR

erre ene a

0 1
  C     -164.944     242.713     127.470
  O     -165.580     241.498     127.122
  P     -167.055     241.159     127.641
  C     -166.881     238.724     128.423
  O     -167.322     239.597     127.392
  C     -167.481     237.325     128.265
  O     -166.886     236.434     129.245
  C     -169.006     237.275     128.448
  O     -169.512     236.325     127.501
  C     -169.165     236.752     129.863
  O     -170.437     236.155     130.081
  C     -167.970     235.796     129.950
  N     -167.603     235.487     131.323
  C     -167.100     234.207     131.573
  O     -167.102     233.357     130.681
  N     -166.621     233.924     132.830
  C     -166.807     234.776     133.791
  N     -166.258     234.486     135.001
  C     -167.562     236.032     133.616
  C     -167.892     236.344     132.363
  O     -168.128     242.060     127.124
  O     -166.947     241.258     129.236
  H     -167.638     241.864     129.566
  H     -170.554     236.002     131.042
  H     -167.802     236.650     134.470
  H     -168.421     237.259     132.127
  H     -168.189     234.855     129.424
  H     -169.049     237.578     130.574
  H     -169.487     238.242     128.282
  H     -167.206     236.950     127.274
  H     -165.714     233.636     135.074
  H     -167.201     239.141     129.384
  H     -166.076     235.206     135.701
  H     -165.786     238.676     128.427
  P     -170.611     236.821     126.436
  C     -172.405     236.318     128.246
  O     -172.034     236.232     126.885
  O     -170.258     235.910     125.161
  O     -170.567     238.266     126.054
  H     -170.564     236.365     124.352
  H     -173.362     235.811     128.380
  H     -172.519     237.363     128.544
  H     -171.658     235.831     128.884
  H     -163.971     242.746     127.026
  H     -164.853     242.776     128.534
  H     -165.527     243.536     127.113

 3  4  5  6  7  8  9  10  11  12  13  24  27  28  29  30  32 0
 6-311+G(2d,p)
 ****
 34  35 0
 6-311+G(2d,p)
 ****
 1  2  14  15  16  17  18  19  20  21  22  23  25  26 0
 3-21G
 ****
 31  33  36  37  38  39  40  41  42  43  44  45  46 0
 3-21G
 ****


