%nproc=1
%NoSave
%Mem=1900MB
#P OB98/GEN NMR

erre ene a

0 1
  C      -26.437     389.028     521.395
  O      -27.322     389.279     522.462
  P      -27.388     390.729     523.147
  C      -29.134     391.971     524.576
  O      -28.905     390.929     523.629
  C      -30.605     392.369     524.574
  O      -30.955     393.094     523.364
  C      -31.567     391.190     524.597
  O      -31.583     390.385     525.755
  C      -32.870     391.861     524.200
  O      -33.481     392.511     525.320
  C      -32.377     392.911     523.171
  N      -32.695     392.517     521.800
  C      -33.859     393.058     521.263
  O      -34.598     393.824     521.876
  N      -34.168     392.659     519.986
  C      -33.469     391.760     519.236
  O      -33.831     391.415     518.118
  C      -32.258     391.209     519.864
  C      -31.933     391.604     521.098
  O      -26.845     391.843     522.323
  O      -26.618     390.511     524.535
  H      -34.151     393.129     524.971
  H      -27.016     389.840     525.117
  H      -35.015     393.032     519.587
  H      -31.675     390.500     519.290
  H      -31.044     391.211     521.581
  H      -32.848     393.882     523.367
  H      -33.599     391.144     523.810
  H      -31.296     390.515     523.776
  H      -30.777     393.045     525.416
  H      -28.528     392.842     524.290
  H      -28.806     391.646     525.569
  P      -32.565     389.134     525.948
  C      -32.607     387.123     527.578
  O      -31.824     388.040     526.850
  O      -33.284     388.655     524.727
  O      -33.640     389.731     526.984
  H      -34.505     389.313     526.815
  H      -31.938     386.475     528.162
  H      -33.185     386.481     526.893
  H      -33.277     387.644     528.263
  H      -26.540     388.011     521.077
  H      -25.431     389.200     521.718
  H      -26.667     389.682     520.580

 3  4  5  6  7  8  9  10  11  12  13  23  28  29  30  31  32 0
 6-311+G(2d,p)
 ****
 33  34 0
 6-311+G(2d,p)
 ****
 1  2  14  15  16  17  18  19  20  21  22  24  25  26  27 0
 3-21G
 ****
 35  36  37  38  39  40  41  42  43  44  45 0
 3-21G
 ****


