%nproc=1
%NoSave
%Mem=1900MB
#P OB98/GEN NMR

erre ene a

0 1
  C      -71.230     524.642      59.958
  O      -71.085     523.527      60.828
  P      -69.594     522.992      61.107
  C      -69.994     520.456      60.727
  O      -69.437     521.666      60.221
  C      -69.529     519.261      59.898
  O      -70.014     519.391      58.554
  C      -68.015     519.122      59.771
  O      -67.441     518.517      60.911
  C      -67.908     518.233      58.548
  O      -68.093     516.857      58.942
  C      -69.082     518.706      57.677
  N      -68.148     519.145      52.721
  C      -68.539     518.044      53.454
  N      -68.744     516.901      52.765
  N      -68.725     518.059      54.752
  C      -68.524     519.279      55.303
  C      -68.133     520.444      54.680
  C      -67.892     520.401      53.258
  O      -67.476     521.334      52.573
  N      -68.051     521.480      55.578
  C      -68.437     520.956      56.727
  N      -68.705     519.618      56.612
  O      -69.689     522.421      62.602
  O      -68.519     524.010      60.968
  H      -68.087     516.322      58.126
  H      -68.807     522.439      63.021
  H      -68.041     519.080      51.728
  H      -68.532     521.503      57.655
  H      -69.621     517.853      57.241
  H      -66.929     518.292      58.059
  H      -68.740     516.857      51.747
  H      -67.553     520.100      59.555
  H      -69.070     516.096      53.279
  H      -69.959     518.357      60.334
  H      -71.081     520.509      60.698
  H      -69.673     520.341      61.771
  P      -65.832     518.474      60.968
  C      -65.755     515.889      60.734
  O      -65.414     517.144      60.176
  O      -65.532     518.124      62.496
  O      -65.169     519.735      60.536
  H      -64.647     518.461      62.755
  H      -66.728     515.917      61.236
  H      -64.982     515.585      61.447
  H      -65.800     515.147      59.931
  H      -72.267     524.888      59.864
  H      -70.833     524.397      58.995
  H      -70.700     525.480      60.360

 3  4  5  6  7  8  9  10  11  12  23  26  30  31  33  0
 6-311+G(2d,p)
 ****
 35  36  37  38 0
 6-311+G(2d,p)
 ****
 1  2  13  14  15  16  17  18  19  20  21  22  24  25  27  28  29 0
 3-21G
 ****
 32  34  39  40  41  42  43  44  45  46  47  48  49 0
 3-21G
 ****


