%nproc=1
%NoSave
%Mem=1900MB
#P OB98/GEN NMR

erre ene a

0 1
  C     -190.707     751.715     467.863
  O     -189.990     751.830     466.629
  P     -188.858     752.965     466.537
  C     -190.303     754.903     465.577
  O     -189.560     754.404     466.669
  C     -190.537     756.412     465.729
  O     -191.471     756.679     466.793
  C     -189.283     757.175     466.111
  O     -188.440     757.369     464.976
  C     -189.847     758.467     466.688
  O     -190.020     759.476     465.662
  C     -191.223     758.023     467.259
  N     -191.277     758.104     468.703
  C     -191.792     759.282     469.235
  O     -192.148     760.206     468.484
  N     -191.871     759.420     470.595
  C     -191.432     758.460     471.362
  N     -191.524     758.643     472.719
  C     -190.854     757.206     470.842
  C     -190.808     757.088     469.520
  O     -188.422     752.908     464.995
  O     -187.693     752.736     467.449
  H     -190.052     760.332     466.150
  H     -187.468     753.129     464.906
  H     -190.504     756.430     471.528
  H     -190.396     756.196     469.046
  H     -192.016     758.650     466.843
  H     -189.182     758.899     467.441
  H     -188.725     756.629     466.890
  H     -190.949     756.809     464.774
  H     -191.920     759.529     473.039
  H     -191.268     754.377     465.488
  H     -191.216     757.951     473.405
  H     -189.763     754.689     464.646
  P     -187.072     756.539     464.903
  C     -185.634     758.088     466.351
  O     -186.327     756.850     466.278
  O     -186.222     757.415     463.849
  O     -187.161     755.105     464.498
  H     -185.387     756.952     463.635
  H     -185.346     758.280     467.392
  H     -186.265     758.905     466.026
  H     -184.717     758.045     465.744
  H     -191.425     750.925     467.786
  H     -191.210     752.636     468.070
  H     -190.021     751.497     468.655

 3  4  5  6  7  8  9  10  11  12  13  21  23  27  28  29  30  32 0
 6-311+G(2d,p)
 ****
 34  35 0
 6-311+G(2d,p)
 ****
 1  2  14  15  16  17  18  19  20  22  24  25  26 0
 3-21G
 ****
 31  33  36  37  38  39  40  41  42  43  44  45  46 0
 3-21G
 ****


