%nproc=1
%NoSave
%Mem=1900MB
#P OB98/GEN NMR

erre ene a

0 1
  C      558.911     520.506    -350.542
  O      557.863     521.146    -349.801
  P      557.210     520.510    -348.480
  C      554.743     520.305    -349.204
  O      555.679     520.974    -348.368
  C      553.395     521.028    -349.233
  O      553.483     522.232    -350.028
  C      552.250     520.227    -349.844
  O      551.779     519.241    -348.940
  C      551.247     521.336    -350.159
  O      550.488     521.692    -348.990
  C      552.177     522.493    -350.582
  N      552.232     522.665    -352.028
  C      551.344     523.586    -352.585
  O      550.525     524.168    -351.865
  N      551.385     523.810    -353.937
  C      552.194     523.118    -354.678
  N      552.200     523.392    -356.010
  C      553.087     522.074    -354.144
  C      553.055     521.899    -352.824
  O      558.006     520.742    -347.237
  O      557.101     518.940    -348.788
  H      551.116     522.098    -348.367
  H      557.191     518.448    -347.951
  H      553.718     521.499    -354.804
  H      553.680     521.161    -352.351
  H      551.843     523.433    -350.127
  H      550.534     521.046    -350.934
  H      552.583     519.762    -350.783
  H      553.148     521.325    -348.205
  H      551.581     524.119    -356.348
  H      554.599     519.289    -348.815
  H      552.788     522.912    -356.679
  H      555.157     520.236    -350.218
  P      551.304     517.816    -349.496
  C      549.529     517.146    -347.764
  O      550.850     516.933    -348.241
  O      552.244     517.143    -350.440
  O      549.906     518.141    -350.222
  H      549.792     517.525    -350.972
  H      549.206     516.258    -347.217
  H      548.838     517.327    -348.592
  H      549.523     518.009    -347.091
  H      559.181     521.117    -351.378
  H      558.570     519.554    -350.892
  H      559.763     520.370    -349.909

 3  4  5  6  7  8  9  10  11  12  13  23  27  28  29  30  32 0
 6-311+G(2d,p)
 ****
 34  35 0
 6-311+G(2d,p)
 ****
 1  2  14  15  16  17  18  19  20  21  22  24  25  26 0
 3-21G
 ****
 31  33  36  37  38  39  40  41  42  43  44  45  46 0
 3-21G
 ****


