%nproc=1
%NoSave
%Mem=1900MB
#P OB98/GEN NMR

erre ene a

0 1
  C      617.596    -896.610       5.335
  O      616.918    -895.450       5.830
  P      615.404    -895.580       6.306
  C      614.023    -894.700       8.307
  O      615.325    -895.040       7.825
  C      614.066    -894.520       9.844
  O      614.167    -895.850      10.470
  C      615.229    -893.720      10.363
  O      614.997    -892.350      10.166
  C      615.262    -894.190      11.825
  O      614.267    -893.460      12.592
  C      614.864    -895.660      11.704
  N      617.948    -898.150      14.911
  C      616.985    -897.230      15.109
  N      616.252    -896.580      14.195
  C      616.584    -896.950      12.963
  C      617.557    -897.870      12.582
  C      618.243    -898.510      13.624
  N      619.172    -899.520      13.421
  N      617.628    -897.980      11.199
  C      616.715    -897.150      10.765
  N      616.017    -896.560      11.774
  O      614.753    -896.900       6.070
  O      614.636    -894.420       5.473
  H      614.166    -893.880      13.456
  H      613.954    -894.810       4.921
  H      616.797    -896.990      16.157
  H      616.475    -896.930       9.715
  H      614.151    -895.960      12.509
  H      616.215    -894.010      12.282
  H      616.173    -894.060       9.880
  H      613.083    -894.110      10.154
  H      613.316    -895.470       8.010
  H      619.524    -900.000      14.256
  H      619.203    -899.960      12.513
  H      613.723    -893.740       7.845
  P      616.107    -891.270      10.633
  C      616.807    -888.910       9.942
  O      615.892    -889.950       9.736
  O      617.510    -891.780      10.655
  O      615.624    -890.810      12.072
  H      616.378    -890.580      12.622
  H      616.532    -888.360      10.874
  H      616.737    -888.230       9.103
  H      617.835    -889.280      10.038
  H      618.597    -896.348       5.061
  H      617.078    -896.987       4.478
  H      617.619    -897.361       6.096

 3  4  5  6  7  8  9  10  11  12  22  25  29  30  31  32 0
 6-311+G(2d,p)
 ****
 33  36  37 0
 6-311+G(2d,p)
 ****
 1  2  13  14  15  16  17  18  19  20  21  23  24  26 0
 3-21G
 ****
 27  28  34  35  38  39  40  41  42  43  44  45  46  47  48 0
 3-21G
 ****


