%nproc=1
%NoSave
%Mem=1900MB
#P OB98/GEN NMR

erre ene a

0 1
  C      480.632       9.106     115.028
  O      480.298       8.787     113.673
  P      479.756       7.309     113.355
  C      477.516       6.020     113.662
  O      478.175       7.277     113.603
  C      475.996       6.198     113.540
  O      475.468       7.066     114.562
  C      475.560       6.818     112.214
  O      475.498       5.845     111.184
  C      474.165       7.310     112.569
  O      473.235       6.205     112.518
  C      474.344       7.792     114.012
  N      472.186      12.438     114.183
  C      471.663      11.199     114.031
  N      472.295      10.017     113.978
  C      473.623      10.182     114.118
  C      474.311      11.384     114.281
  C      473.531      12.552     114.313
  N      474.078      13.809     114.480
  N      475.667      11.165     114.382
  C      475.796       9.851     114.294
  N      474.597       9.217     114.125
  O      480.338       6.447     114.573
  O      480.214       6.776     112.036
  H      473.297       5.821     111.624
  H      480.556       5.545     114.264
  H      470.571      11.159     113.939
  H      476.744       9.317     114.353
  H      473.468       7.566     114.640
  H      473.795       8.067     111.871
  H      476.206       7.671     111.947
  H      475.530       5.207     113.653
  H      477.759       5.514     114.596
  H      473.445      14.593     114.514
  H      475.075      13.893     114.599
  H      477.903       5.377     112.858
  P      476.884       5.439     110.470
  C      478.756       3.822     111.287
  O      477.372       4.094     111.208
  O      477.899       6.562     111.000
  O      476.821       5.385     108.985
  H      478.597       6.721     110.325
  H      478.924       3.069     112.057
  H      479.322       4.723     111.546
  H      479.111       3.431     110.324
  H      480.975      10.118     115.082
  H      481.404       8.449     115.369
  H      479.766       8.990     115.646

 3  4  5  6  7  8  9  10  11  12  22  25  29  30  31  32 0
 6-311+G(2d,p)
 ****
 33  36  37 0
 6-311+G(2d,p)
 ****
 1  2  13  14  15  16  17  18  19  20  21  23  24  26 0
 3-21G
 ****
 27  28  34  35  38  39  40  41  42  43  44  45  46  47  48 0
 3-21G
 ****


