%nproc=1
%NoSave
%Mem=1900MB
#P OB98/GEN NMR

erre ene a

0 1
  C      566.272    -718.280     204.288
  O      566.768    -717.953     205.572
  H      565.193    -718.100     204.278
  H      566.458    -719.334     204.081
  H      566.738    -717.663     203.514
  P      568.347    -717.775     205.766
  C      568.572    -715.878     207.509
  O      568.589    -717.285     207.273
  C      567.158    -715.309     207.361
  O      566.263    -715.978     208.280
  C      567.149    -713.820     207.725
  O      566.126    -713.104     207.033
  C      566.814    -713.847     209.214
  O      566.276    -712.616     209.678
  C      565.851    -715.031     209.281
  N      564.230    -714.768     214.101
  C      564.161    -713.817     213.107
  N      563.612    -712.631     213.450
  N      564.617    -714.004     211.894
  C      565.206    -715.214     211.712
  C      565.349    -716.226     212.638
  C      564.815    -716.016     213.961
  O      564.863    -716.820     214.886
  N      566.025    -717.301     212.091
  C      566.287    -716.925     210.859
  N      565.800    -715.671     210.575
  O      568.689    -716.461     204.914
  O      569.190    -718.939     205.339
  H      566.192    -712.675     210.649
  H      569.619    -716.470     204.632
  H      563.858    -714.573     215.019
  H      566.822    -717.524     210.122
  H      564.832    -714.708     209.031
  H      567.747    -714.020     209.767
  H      563.423    -712.370     214.401
  H      568.104    -713.343     207.538
  H      563.825    -711.830     212.836
  H      566.780    -715.499     206.349
  H      569.249    -715.420     206.769
  H      568.987    -715.660     208.495
  P      566.499    -712.495     205.596
  C      564.210    -712.573     204.306
  O      565.177    -711.810     205.009
  O      566.712    -713.784     204.682
  O      567.696    -711.610     205.617
  H      567.661    -713.926     204.524
  H      563.408    -711.935     203.998
  H      563.829    -713.342     204.945
  H      564.664    -713.017     203.445

 6  7  8  9  10  11  12  13  14  15  26  29  33  34 0
 6-311+G(2d,p)
 ****
 36  38  39  40  41 0
 6-311+G(2d,p)
 ****
 1  2  3  4  5  16  17  18  19  20  21  22  23  24  25 0
 3-21G
 ****
 27  28  30  31  32  35  37  42  43  44  45  46  47 0
 3-21G
 ****
 48  49 0
 3-21G
 ****


