%nproc=1
%NoSave
%Mem=1900MB
#P OB98/GEN NMR

erre ene a

0 1
  C     -153.001     -76.258     -37.648
  O     -153.821     -75.529     -36.751
  P     -153.249     -74.145     -36.167
  C     -152.339     -75.446     -34.102
  O     -152.070     -74.528     -35.148
  C     -151.913     -74.862     -32.751
  O     -150.465     -74.772     -32.725
  C     -152.458     -73.460     -32.457
  O     -152.647     -73.375     -31.037
  C     -151.316     -72.551     -32.873
  O     -151.384     -71.266     -32.263
  C     -150.118     -73.394     -32.454
  N     -145.150     -72.495     -32.115
  C     -146.078     -72.738     -31.117
  N     -145.595     -72.806     -29.858
  N     -147.356     -72.897     -31.334
  C     -147.687     -72.818     -32.646
  C     -146.871     -72.542     -33.717
  C     -145.454     -72.403     -33.468
  O     -144.588     -72.275     -34.330
  N     -147.584     -72.451     -34.884
  C     -148.820     -72.753     -34.527
  N     -148.923     -73.026     -33.188
  O     -154.432     -73.647     -35.211
  O     -152.867     -73.120     -37.188
  H     -152.097     -70.764     -32.703
  H     -155.031     -73.036     -35.680
  H     -144.174     -72.397     -31.888
  H     -149.670     -72.793     -35.188
  H     -149.891     -73.302     -31.385
  H     -151.338     -72.408     -33.960
  H     -144.617     -72.724     -29.620
  H     -153.394     -73.233     -32.979
  H     -146.246     -73.017     -29.111
  H     -152.212     -75.564     -31.963
  H     -151.768     -76.363     -34.279
  H     -153.405     -75.698     -34.096
  P     -153.899     -72.532     -30.496
  C     -152.805     -70.212     -30.135
  O     -153.674     -71.005     -30.918
  O     -153.656     -72.514     -28.909
  O     -155.235     -73.113     -30.822
  H     -154.515     -72.501     -28.450
  H     -152.450     -69.375     -30.741
  H     -151.940     -70.784     -29.785
  H     -153.350     -69.817     -29.273
  H     -153.509     -77.150     -37.951
  H     -152.084     -76.518     -37.162
  H     -152.791     -75.657     -38.508

 3  4  5  6  7  8  9  10  11  12  23  26  30  31 0
 6-311+G(2d,p)
 ****
 33  35  36  37  38 0
 6-311+G(2d,p)
 ****
 1  2  13  14  15  16  17  18  19  20  21  22  24  25 0
 3-21G
 ****
 27  28  29  32  34  39  40  41  42  43  44  45  46  47  48  49 0
 3-21G
 ****


