%nproc=1
%NoSave
%Mem=1900MB
#P OB98/GEN NMR

erre ene a

0 1
  C      201.402    -592.869     763.003
  O      199.987    -592.742     762.804
  P      199.188    -594.000     762.211
  C      197.369    -594.388     764.041
  O      198.578    -594.844     763.434
  C      197.617    -594.023     765.511
  O      198.570    -592.940     765.642
  C      196.365    -593.546     766.234
  O      195.588    -594.636     766.685
  C      196.986    -592.814     767.426
  O      197.378    -593.760     768.431
  C      198.217    -592.150     766.796
  N      196.949    -587.444     768.388
  C      197.048    -588.634     769.041
  N      197.374    -589.838     768.538
  C      197.628    -589.761     767.236
  C      197.570    -588.632     766.424
  C      197.209    -587.431     767.053
  N      197.123    -586.228     766.391
  N      197.893    -588.944     765.117
  C      198.144    -590.235     765.139
  N      198.000    -590.783     766.385
  O      200.359    -594.942     761.662
  O      198.220    -593.642     761.129
  H      196.591    -594.306     768.629
  H      200.058    -595.411     760.866
  H      196.831    -588.595     770.107
  H      198.452    -590.818     764.280
  H      199.080    -592.159     767.475
  H      196.274    -592.123     767.896
  H      195.787    -592.847     765.614
  H      198.027    -594.904     766.019
  H      196.608    -595.171     763.972
  H      196.889    -585.408     766.903
  H      197.338    -586.214     765.396
  H      196.991    -593.534     763.477
  P      194.562    -595.295     765.624
  C      195.536    -597.676     765.948
  O      195.302    -596.594     765.069
  O      194.607    -594.261     764.406
  O      193.181    -595.495     766.142
  H      193.747    -594.249     763.930
  H      195.752    -598.576     765.349
  H      194.654    -597.880     766.562
  H      196.390    -597.465     766.588
  H      201.790    -591.954     763.401
  H      201.876    -593.081     762.067
  H      201.595    -593.667     763.689

 3  4  5  6  7  8  9  10  11  12  22  25  29  30  31  32 0
 6-311+G(2d,p)
 ****
 33  36  37 0
 6-311+G(2d,p)
 ****
 1  2  13  14  15  16  17  18  19  20  21  23  24  26 0
 3-21G
 ****
 27  28  34  35  38  39  40  41  42  43  44  45  46  47  48 0
 3-21G
 ****


