%nproc=1
%NoSave
%Mem=1900MB
#P OB98/GEN NMR

erre ene a

0 1
  C      435.607     168.407      78.731
  O      436.490     169.359      79.291
  H      436.106     167.427      78.715
  H      435.358     168.691      77.706
  H      434.697     168.323      79.331
  P      435.879     170.813      79.598
  C      436.073     170.516      82.172
  O      435.211     170.728      81.055
  C      435.955     171.683      83.159
  O      434.560     172.020      83.371
  C      436.536     171.396      84.538
  O      437.949     171.598      84.564
  C      435.815     172.450      85.367
  O      436.423     173.742      85.146
  C      434.406     172.410      84.760
  N      432.340     171.071      89.191
  C      433.249     172.071      88.906
  N      433.682     172.815      89.953
  N      433.705     172.321      87.705
  C      433.196     171.491      86.761
  C      432.287     170.468      86.918
  C      431.782     170.214      88.254
  O      430.958     169.355      88.561
  N      432.005     169.856      85.724
  C      432.755     170.494      84.851
  N      433.501     171.486      85.427
  O      434.607     170.895      78.621
  O      436.807     171.956      79.379
  H      437.388     173.610      85.163
  H      434.518     171.815      78.299
  H      432.027     170.919      90.143
  H      432.786     170.274      83.792
  H      433.922     173.398      84.775
  H      435.869     172.250      86.437
  H      433.401     172.644      90.905
  H      436.260     170.397      84.896
  H      434.328     173.570      89.759
  H      436.431     172.557      82.702
  H      437.103     170.446      81.823
  H      435.792     169.577      82.665
  P      438.841     170.472      85.281
  C      440.021     169.695      83.103
  O      439.126     169.363      84.163
  O      437.794     169.747      86.259
  O      440.036     170.991      86.014
  H      438.272     169.316      86.992
  H      440.112     168.861      82.438
  H      440.982     169.934      83.509
  H      439.641     170.539      82.566

 6  7  8  9  10  11  12  13  14  15  26  29  33  34 0
 6-311+G(2d,p)
 ****
 36  38  39  40  41 0
 6-311+G(2d,p)
 ****
 1  2  3  4  5  16  17  18  19  20  21  22  23  24  25 0
 3-21G
 ****
 27  28  30  31  32  35  37  42  43  44  45  46  47 0
 3-21G
 ****
 48  49 0
 3-21G
 ****


