%nproc=1
%NoSave
%Mem=1900MB
#P OB98/GEN NMR

erre ene a

0 1
  C       41.586     -33.400      25.400
  O       42.984     -33.595      25.516
  P       43.907     -33.280      24.246
  C       45.620     -31.940      25.672
  O       44.732     -31.942      24.565
  C       46.696     -30.868      25.491
  O       47.381     -30.653      26.762
  C       47.767     -31.227      24.451
  O       48.178     -30.008      23.816
  C       48.896     -31.758      25.313
  O       50.154     -31.747      24.656
  C       48.792     -30.808      26.510
  N       49.500     -31.300      27.690
  C       50.889     -31.221      27.680
  O       51.546     -30.767      26.744
  N       51.523     -31.746      28.774
  C       50.928     -32.407      29.808
  O       51.562     -32.957      30.700
  C       49.458     -32.459      29.765
  C       48.822     -31.912      28.726
  O       42.855     -32.821      23.132
  O       44.745     -34.425      23.786
  H       50.368     -30.820      24.449
  H       42.671     -33.554      22.516
  H       52.529     -31.687      28.789
  H       48.952     -32.958      30.581
  H       47.740     -31.955      28.659
  H       49.179     -29.817      26.240
  H       48.677     -32.792      25.603
  H       47.427     -31.950      23.703
  H       46.206     -29.923      25.224
  H       46.097     -32.918      25.750
  H       45.055     -31.769      26.595
  P       48.243     -29.981      22.212
  C       45.709     -30.594      22.038
  O       47.042     -30.898      21.687
  O       49.551     -30.870      21.952
  O       48.332     -28.605      21.637
  H       49.583     -31.661      22.514
  H       45.549     -29.515      22.115
  H       45.471     -31.063      22.995
  H       45.041     -30.995      21.272
  H       41.113     -33.652      26.326
  H       41.202     -34.025      24.621
  H       41.387     -32.375      25.165

 3  4  5  6  7  8  9  10  11  12  13  23  28  29  30  31  32 0
 6-311+G(2d,p)
 ****
 33  34 0
 6-311+G(2d,p)
 ****
 1  2  14  15  16  17  18  19  20  21  22  24  25  26 0
 3-21G
 ****
 27  35  36  37  38  39  40  41  42  43  44  45 0
 3-21G
 ****


