%nproc=1
%NoSave
%Mem=1900MB
#P OB98/GEN NMR

erre ene a

0 1
  C     1010.429    -299.965     625.944
  O     1009.195    -299.302     625.669
  P     1008.219    -299.022     626.913
  C     1008.147    -296.402     626.787
  O     1008.624    -297.568     627.453
  C     1009.334    -295.602     626.242
  O     1010.001    -296.332     625.180
  C     1008.943    -294.274     625.628
  O     1008.623    -293.312     626.623
  C     1010.190    -293.947     624.809
  O     1011.212    -293.403     625.657
  C     1010.610    -295.346     624.309
  N     1010.271    -295.583     622.911
  C     1011.338    -295.843     622.057
  O     1012.512    -295.848     622.436
  N     1011.014    -296.068     620.751
  C     1009.765    -296.031     620.219
  O     1009.536    -296.255     619.033
  C     1008.684    -295.712     621.156
  C     1008.976    -295.498     622.443
  O     1008.807    -300.033     628.005
  O     1006.773    -299.216     626.582
  H     1009.773    -300.124     627.945
  H     1011.282    -294.006     626.426
  H     1011.773    -296.266     620.120
  H     1007.673    -295.649     620.756
  H     1008.184    -295.258     623.146
  H     1011.692    -295.480     624.422
  H     1010.003    -293.217     624.012
  H     1008.088    -294.406     624.954
  H     1010.051    -295.449     627.056
  H     1007.586    -295.773     627.478
  H     1007.477    -296.705     625.987
  P     1007.058    -293.008     626.869
  C     1007.017    -293.712     629.386
  O     1006.589    -293.959     628.066
  O     1006.410    -293.673     625.559
  O     1006.748    -291.554     627.033
  H     1006.783    -294.543     625.360
  H     1006.345    -294.223     630.075
  H     1007.013    -292.642     629.606
  H     1008.032    -294.107     629.522
  H     1010.979    -300.088     625.034
  H     1010.230    -300.925     626.373
  H     1011.003    -299.379     626.631

 3  4  5  6  7  8  9  10  11  12  13  24  28  29  30  31  32 0
 6-311+G(2d,p)
 ****
 33  34 0
 6-311+G(2d,p)
 ****
 1  2  14  15  16  17  18  19  20  21  22  23  25  26  27 0
 3-21G
 ****
 35  36  37  38  39  40  41  42  43  44  45 0
 3-21G
 ****


