%nproc=1
%NoSave
%Mem=1900MB
#P OB98/GEN NMR

erre ene a

0 1
  C      196.207    -896.780     193.454
  O      195.899    -896.680     192.073
  H      196.201    -895.780     193.887
  H      197.198    -897.220     193.586
  H      195.459    -897.390     193.977
  P      195.655    -898.030     191.241
  C      193.306    -897.350     190.409
  O      194.646    -897.660     190.049
  C      192.535    -896.780     189.196
  O      193.011    -895.430     188.936
  C      192.733    -897.600     187.907
  O      191.530    -897.450     187.128
  C      193.885    -896.830     187.261
  O      194.101    -897.200     185.914
  C      193.438    -895.400     187.553
  N      194.450    -894.370     187.349
  C      195.105    -894.330     186.128
  O      194.894    -895.120     185.186
  N      196.054    -893.360     185.983
  C      196.401    -892.420     186.932
  O      197.243    -891.550     186.729
  C      195.680    -892.510     188.202
  C      194.747    -893.460     188.352
  O      195.278    -899.230     192.035
  O      197.040    -898.240     190.462
  H      197.568    -898.940     190.916
  H      194.434    -898.130     185.888
  H      196.544    -893.310     185.105
  H      195.938    -891.800     188.965
  H      194.192    -893.560     189.281
  H      192.559    -895.150     186.962
  H      194.816    -897.080     187.782
  H      192.926    -898.650     188.072
  H      191.483    -896.710     189.463
  H      193.325    -896.600     191.216
  H      192.815    -898.250     190.774
  P      190.516    -898.650     186.826
  C      188.987    -898.460     188.921
  O      189.098    -898.300     187.497
  O      191.037    -900.000     187.197
  O      190.216    -898.560     185.243
  H      189.971    -899.460     184.916
  H      187.999    -898.195     189.234
  H      189.697    -897.825     189.408
  H      189.182    -899.479     189.182

 6  7  8  9  10  11  12  13  14  15  16  27  31  32  33  34  35 0
 6-311+G(2d,p)
 ****
 36  37 0
 6-311+G(2d,p)
 ****
 1  2  3  4  5  17  18  19  20  21  22  23  24  25 0
 3-21G
 ****
 26  28  29  30  38  39  40  41  42  43  44  45 0
 3-21G
 ****


