%nproc=1
%NoSave
%Mem=1900MB
#P OB98/GEN NMR

erre ene a

0 1
  C      150.281     198.085    -257.393
  O      151.226     197.573    -256.472
  P      150.792     197.208    -254.978
  C      152.984     198.211    -254.112
  O      152.134     197.072    -254.102
  C      154.403     197.845    -254.545
  O      154.904     196.788    -253.678
  C      154.522     197.341    -255.992
  O      155.795     197.785    -256.477
  C      154.545     195.829    -255.819
  O      155.109     195.154    -256.934
  C      155.350     195.716    -254.528
  N      156.895     190.849    -254.235
  C      157.262     191.861    -255.051
  N      156.784     193.125    -255.085
  C      155.836     193.295    -254.150
  C      155.335     192.354    -253.266
  C      155.924     191.074    -253.317
  N      155.589     190.042    -252.470
  N      154.323     192.895    -252.500
  C      154.218     194.143    -252.911
  N      155.154     194.447    -253.866
  O      149.850     196.055    -254.851
  O      150.134     198.554    -254.420
  H      156.074     195.308    -256.934
  H      149.163     198.455    -254.378
  H      158.041     191.630    -255.770
  H      153.483     194.858    -252.564
  H      156.425     195.844    -254.700
  H      153.520     195.462    -255.682
  H      153.717     197.679    -256.647
  H      155.043     198.718    -254.388
  H      153.010     198.619    -253.098
  H      156.160     189.216    -252.505
  H      155.072     190.257    -251.616
  H      152.571     198.978    -254.778
  P      156.061     197.865    -258.055
  C      158.381     196.857    -257.639
  O      157.649     197.908    -258.246
  O      155.298     198.919    -258.780
  O      155.677     196.393    -258.574
  H      155.540     196.413    -259.538
  H      158.509     197.075    -256.569
  H      159.364     196.788    -258.110
  H      157.862     195.902    -257.750
  H      150.760     198.266    -258.332
  H      149.877     199.001    -257.017
  H      149.492     197.375    -257.526

 3  4  5  6  7  8  9  10  11  12  22  25  29  30  31  32 0
 6-311+G(2d,p)
 ****
 33  36  37 0
 6-311+G(2d,p)
 ****
 1  2  13  14  15  16  17  18  19  20  21  23  24  26 0
 3-21G
 ****
 27  28  34  35  38  39  40  41  42  43  44  45  46  47  48 0
 3-21G
 ****


