%nproc=1
%NoSave
%Mem=1900MB
#P OB98/GEN NMR

erre ene a

0 1
  C     -177.441    -196.467     424.398
  O     -177.773    -197.664     423.729
  H     -176.351    -196.405     424.483
  H     -177.863    -196.465     425.407
  H     -177.796    -195.596     423.843
  P     -179.304    -197.927     423.340
  C     -178.855    -197.321     420.876
  O     -179.618    -197.043     422.041
  C     -178.932    -196.135     419.913
  O     -178.661    -194.900     420.619
  C     -177.913    -196.193     418.781
  O     -178.302    -197.117     417.784
  C     -177.897    -194.741     418.328
  O     -179.011    -194.459     417.465
  C     -178.040    -193.995     419.678
  N     -176.764    -193.499     420.187
  C     -176.822    -192.477     421.137
  O     -177.880    -191.976     421.514
  N     -175.620    -192.032     421.608
  C     -174.390    -192.415     421.160
  O     -173.339    -191.919     421.553
  C     -174.382    -193.477     420.143
  C     -175.550    -193.964     419.711
  O     -180.290    -197.785     424.453
  O     -179.297    -199.424     422.757
  H     -178.853    -194.954     416.636
  H     -179.678    -200.029     423.423
  H     -175.644    -191.284     422.285
  H     -173.423    -193.818     419.769
  H     -175.564    -194.744     418.957
  H     -178.722    -193.139     419.571
  H     -176.995    -194.488     417.784
  H     -176.924    -196.450     419.175
  H     -179.952    -196.077     419.513
  H     -179.269    -198.210     420.386
  H     -177.818    -197.521     421.166
  P     -177.351    -198.348     417.413
  C     -179.318    -199.991     417.599
  O     -177.995    -199.678     418.036
  O     -175.901    -198.148     417.725
  O     -177.570    -198.542     415.843
  H     -176.721    -198.415     415.373
  H     -179.647    -200.892     418.074
  H     -179.320    -200.126     416.538
  H     -179.978    -199.190     417.858

 6  7  8  9  10  11  12  13  14  15  16  26  31  32  33  34  35 0
 6-311+G(2d,p)
 ****
 36  37 0
 6-311+G(2d,p)
 ****
 1  2  3  4  5  17  18  19  20  21  22  23  24  25 0
 3-21G
 ****
 27  28  29  30  38  39  40  41  42  43  44  45 0
 3-21G
 ****


