%nproc=1
%NoSave
%Mem=1900MB
#P OB98/GEN NMR

erre ene a

0 1
  C     -102.259    -116.161     -28.976
  O     -103.316    -116.845     -28.333
  P     -103.349    -117.032     -26.740
  C     -102.388    -119.384     -27.138
  O     -102.264    -118.171     -26.412
  C     -101.506    -120.483     -26.540
  O     -100.106    -120.170     -26.782
  C     -101.679    -120.691     -25.027
  O     -101.486    -122.089     -24.788
  C     -100.527    -119.889     -24.453
  O     -100.206    -120.264     -23.121
  C      -99.437    -120.160     -25.500
  N      -98.367    -119.170     -25.444
  C      -97.249    -119.496     -24.670
  O      -97.231    -120.538     -24.013
  N      -96.201    -118.610     -24.614
  C      -96.310    -117.455     -25.194
  N      -95.238    -116.620     -25.108
  C      -97.520    -117.020     -25.914
  C      -98.496    -117.924     -26.014
  O     -104.702    -117.267     -26.158
  O     -102.638    -115.708     -26.189
  H      -99.539    -119.632     -22.773
  H     -103.262    -114.940     -26.229
  H      -97.586    -116.028     -26.334
  H      -99.421    -117.699     -26.523
  H      -98.998    -121.156     -25.353
  H     -100.787    -118.823     -24.445
  H     -102.650    -120.363     -24.649
  H     -101.726    -121.417     -27.072
  H      -94.420    -116.962     -24.617
  H     -102.068    -119.199     -28.167
  H      -95.184    -115.734     -25.591
  H     -103.436    -119.699     -27.166
  P     -102.094    -122.804     -23.488
  C      -99.690    -123.191     -22.690
  O     -100.978    -122.715     -22.341
  O     -102.650    -124.172     -23.719
  O     -103.228    -121.793     -22.974
  H     -103.816    -122.257     -22.344
  H      -98.965    -122.830     -21.953
  H      -99.397    -122.835     -23.683
  H      -99.691    -124.285     -22.682
  H     -102.431    -116.150     -30.032
  H     -101.335    -116.659     -28.771
  H     -102.211    -115.156     -28.612

 3  4  5  6  7  8  9  10  11  12  13  23  27  28  29  30  32 0
 6-311+G(2d,p)
 ****
 34  35 0
 6-311+G(2d,p)
 ****
 1  2  14  15  16  17  18  19  20  21  22  24  25  26 0
 3-21G
 ****
 31  33  36  37  38  39  40  41  42  43  44  45  46 0
 3-21G
 ****


