%nproc=1
%NoSave
%Mem=1900MB
#P OB98/GEN NMR

erre ene a

0 1
  C      -40.226    -106.534     103.616
  O      -41.389    -105.853     104.033
  H      -39.410    -105.812     103.522
  H      -40.395    -106.994     102.640
  H      -39.934    -107.298     104.342
  P      -42.658    -106.703     104.518
  C      -43.406    -105.670     106.762
  O      -43.578    -105.687     105.352
  C      -42.263    -104.727     107.141
  O      -42.555    -103.409     106.583
  C      -42.085    -104.560     108.664
  O      -40.692    -104.381     108.943
  C      -42.836    -103.268     108.915
  O      -42.457    -102.667     110.127
  C      -42.472    -102.469     107.667
  N      -43.361    -101.325     107.485
  C      -42.876    -100.084     107.877
  O      -41.762     -99.911     108.369
  N      -43.746     -99.035     107.757
  C      -45.058     -99.125     107.397
  O      -45.814     -98.165     107.383
  C      -45.532    -100.474     107.044
  C      -44.674    -101.495     107.098
  O      -42.356    -107.986     105.217
  O      -43.520    -106.921     103.188
  H      -42.500    -103.319     110.851
  H      -44.121    -107.682     103.293
  H      -43.405     -98.126     108.027
  H      -46.572    -100.583     106.770
  H      -44.993    -102.504     106.862
  H      -41.435    -102.113     107.720
  H      -43.913    -103.461     108.959
  H      -42.476    -105.403     109.237
  H      -41.338    -105.076     106.671
  H      -43.173    -106.689     107.090
  H      -44.337    -105.346     107.239
  P      -39.678    -105.623     109.016
  C      -37.518    -104.353     108.455
  O      -38.207    -105.124     109.434
  O      -39.698    -106.503     107.808
  O      -40.162    -106.450     110.299
  H      -40.194    -107.400     110.074
  H      -36.556    -104.074     108.832
  H      -38.083    -103.472     108.233
  H      -37.397    -104.933     107.564

 6  7  8  9  10  11  12  13  14  15  16  26  31  32  33  34  35 0
 6-311+G(2d,p)
 ****
 36  37 0
 6-311+G(2d,p)
 ****
 1  2  3  4  5  17  18  19  20  21  22  23  24  25 0
 3-21G
 ****
 27  28  29  30  38  39  40  41  42  43  44  45 0
 3-21G
 ****


