%nproc=1
%NoSave
%Mem=1900MB
#P OB98/GEN NMR

erre ene a

0 1
  C      283.666     190.665     351.081
  O      284.746     191.579     351.111
  H      282.731     191.199     351.268
  H      283.619     190.209     350.089
  H      283.803     189.877     351.826
  P      285.193     192.140     352.546
  C      287.370     190.769     352.196
  O      286.329     191.140     353.089
  C      288.056     189.492     352.680
  O      288.671     189.759     353.974
  C      287.112     188.291     352.848
  O      287.801     187.112     352.420
  C      286.900     188.221     354.349
  O      286.556     186.915     354.796
  C      288.251     188.710     354.864
  N      287.745     187.212     359.698
  C      288.102     186.543     358.580
  N      288.264     187.035     357.335
  C      288.087     188.368     357.319
  C      287.729     189.184     358.379
  C      287.536     188.547     359.617
  N      287.105     189.204     360.747
  N      287.586     190.491     357.951
  C      287.829     190.457     356.658
  N      288.135     189.193     356.228
  O      283.921     191.796     353.460
  O      285.536     193.590     352.592
  H      285.858     186.556     354.212
  H      283.278     192.526     353.410
  H      288.268     185.477     358.697
  H      287.768     191.300     355.983
  H      289.016     187.922     354.858
  H      286.096     188.909     354.637
  H      286.170     188.388     352.296
  H      288.869     189.251     351.984
  H      288.108     191.575     352.159
  H      286.893     188.648     361.562
  H      286.841     190.176     360.676
  H      286.954     190.621     351.196
  P      287.551     186.616     350.916
  C      289.966     187.367     350.288
  O      288.581     187.373     349.949
  O      286.142     187.277     350.543
  O      287.518     185.129     350.764
  H      285.648     186.697     349.932
  H      290.516     187.911     349.549
  H      290.320     186.358     350.326
  H      290.101     187.828     351.244

 6  7  8  9  10  11  12  13  14  15  25  28  32  33  34  35 0
 6-311+G(2d,p)
 ****
 36  39  40 0
 6-311+G(2d,p)
 ****
 1  2  3  4  5  16  17  18  19  20  21  22  23  24 0
 3-21G
 ****
 26  27  29  30  31  37  38  41  42  43  44  45  46  47 0
 3-21G
 ****
 48 0
 3-21G
 ****


