%nproc=1
%NoSave
%Mem=1900MB
#P OB98/GEN NMR

erre ene a

0 1
  C      360.084     -30.937    -751.029
  O      360.683     -31.916    -750.190
  P      362.221     -32.292    -750.413
  C      362.894     -31.175    -748.186
  O      363.120     -31.241    -749.594
  C      363.722     -30.044    -747.556
  O      363.202     -28.748    -747.919
  C      363.713     -30.070    -746.045
  O      364.545     -31.117    -745.554
  C      364.179     -28.664    -745.706
  O      365.616     -28.558    -745.785
  C      363.534     -27.836    -746.844
  N      362.367     -27.082    -746.412
  C      362.622     -25.940    -745.633
  O      363.782     -25.661    -745.317
  N      361.569     -25.174    -745.215
  C      360.352     -25.509    -745.538
  N      359.340     -24.713    -745.107
  C      360.036     -26.704    -746.350
  C      361.079     -27.440    -746.746
  O      362.639     -32.510    -751.833
  O      362.394     -33.637    -749.546
  H      365.807     -27.607    -745.885
  H      363.082     -34.190    -749.959
  H      359.008     -26.940    -746.605
  H      360.940     -28.326    -747.345
  H      364.253     -27.118    -747.265
  H      363.889     -28.356    -744.707
  H      362.683     -30.213    -745.673
  H      364.755     -30.130    -747.936
  H      359.589     -23.904    -744.545
  H      363.170     -32.133    -747.727
  H      358.377     -24.855    -745.357
  H      361.824     -31.030    -748.007
  P      363.828     -32.406    -744.922
  C      364.925     -34.067    -746.587
  O      363.732     -33.517    -746.072
  O      362.307     -31.927    -744.738
  O      364.400     -32.875    -743.624
  H      361.924     -32.339    -743.952
  H      364.692     -34.998    -747.108
  H      365.646     -34.271    -745.793
  H      365.371     -33.373    -747.307
  H      359.060     -30.805    -750.749
  H      360.136     -31.260    -752.048
  H      360.605     -30.009    -750.922

 3  4  5  6  7  8  9  10  11  12  13  23  27  28  29  30  32 0
 6-311+G(2d,p)
 ****
 34  35 0
 6-311+G(2d,p)
 ****
 1  2  14  15  16  17  18  19  20  21  22  24  25  26 0
 3-21G
 ****
 31  33  36  37  38  39  40  41  42  43  44  45  46 0
 3-21G
 ****


