%nproc=1
%NoSave
%Mem=1900MB
#P OB98/GEN NMR

erre ene a

0 1
  C     -319.130     338.076     182.258
  O     -318.511     338.299     183.528
  P     -319.434     338.713     184.777
  C     -319.501     341.265     184.413
  O     -320.240     340.046     184.405
  C     -320.419     342.460     184.757
  O     -320.997     342.299     186.091
  C     -319.660     343.790     184.748
  O     -320.533     344.858     184.311
  C     -319.362     344.020     186.213
  O     -319.094     345.402     186.494
  C     -320.638     343.465     186.856
  N     -319.616     345.272     191.544
  C     -319.799     345.893     190.356
  N     -320.103     345.353     189.159
  C     -320.201     344.015     189.261
  C     -320.033     343.237     190.399
  C     -319.723     343.925     191.585
  N     -319.494     343.276     192.782
  N     -320.223     341.900     190.103
  C     -320.433     341.863     188.823
  N     -320.460     343.116     188.251
  O     -318.758     338.738     186.104
  O     -320.589     337.596     184.747
  H     -318.169     345.577     186.209
  H     -320.779     337.308     185.669
  H     -319.706     346.978     190.388
  H     -320.560     340.959     188.220
  H     -321.467     344.173     186.789
  H     -318.470     343.434     186.501
  H     -318.752     343.803     184.126
  H     -321.251     342.474     184.049
  H     -319.032     341.419     183.445
  H     -319.164     343.836     193.554
  H     -319.448     342.268     192.797
  H     -318.683     341.177     185.130
  P     -320.782     344.933     182.720
  C     -318.736     346.452     182.110
  O     -319.353     345.179     182.050
  O     -321.853     345.908     182.336
  O     -321.148     343.415     182.362
  H     -320.506     342.761     182.706
  H     -317.712     346.354     181.718
  H     -318.683     346.797     183.143
  H     -319.294     347.163     181.505
  H     -318.383     337.810     181.539
  H     -319.628     338.969     181.942
  H     -319.842     337.282     182.343

 3  4  5  6  7  8  9  10  11  12  22  25  29  30  31  32 0
 6-311+G(2d,p)
 ****
 33  36  37 0
 6-311+G(2d,p)
 ****
 1  2  13  14  15  16  17  18  19  20  21  23  24  26 0
 3-21G
 ****
 27  28  34  35  38  39  40  41  42  43  44  45  46  47  48 0
 3-21G
 ****


