%nproc=1
%NoSave
%Mem=1900MB
#P OB98/GEN NMR

erre ene a

0 1
  C      203.557    -174.070    -101.778
  O      204.159    -173.114    -100.924
  P      203.260    -172.516     -99.736
  C      205.245    -171.554     -98.356
  O      204.087    -171.278     -99.140
  C      206.334    -170.526     -98.640
  O      207.037    -170.872     -99.845
  C      205.814    -169.115     -98.858
  O      205.483    -168.509     -97.626
  C      206.993    -168.467     -99.572
  O      207.948    -167.953     -98.630
  C      207.590    -169.645    -100.375
  N      207.350    -169.525    -101.804
  C      208.360    -168.895    -102.540
  O      209.363    -168.463    -101.970
  N      208.186    -168.733    -103.894
  C      207.097    -169.161    -104.458
  N      206.982    -168.980    -105.801
  C      206.004    -169.815    -103.713
  C      206.190    -169.959    -102.401
  O      203.377    -173.630     -98.596
  O      201.841    -172.230    -100.109
  H      208.319    -168.737     -98.175
  H      202.595    -173.615     -98.013
  H      205.117    -170.154    -104.230
  H      205.435    -170.425    -101.779
  H      208.674    -169.704    -100.217
  H      206.678    -167.625    -100.195
  H      204.941    -169.127     -99.523
  H      207.051    -170.546     -97.807
  H      207.747    -168.523    -106.281
  H      205.622    -172.549     -98.608
  H      206.185    -169.298    -106.335
  H      204.965    -171.544     -97.298
  P      204.030    -167.854     -97.483
  C      203.904    -168.612     -95.037
  O      203.886    -167.509     -95.923
  O      203.068    -169.125     -97.637
  O      203.677    -166.762     -98.438
  H      202.137    -168.837     -97.665
  H      203.957    -168.235     -94.011
  H      204.778    -169.242     -95.226
  H      202.988    -169.199     -95.150
  H      204.263    -174.381    -102.519
  H      202.706    -173.634    -102.258
  H      203.247    -174.917    -101.203

 3  4  5  6  7  8  9  10  11  12  13  21  23  27  28  29  30  32 0
 6-311+G(2d,p)
 ****
 34  35 0
 6-311+G(2d,p)
 ****
 1  2  14  15  16  17  18  19  20  22  24  25  26 0
 3-21G
 ****
 31  33  36  37  38  39  40  41  42  43  44  45  46 0
 3-21G
 ****


