%nproc=1
%NoSave
%Mem=1900MB
#P OB98/GEN NMR

erre ene a

0 1
  C      809.855    -419.704    -406.793
  O      808.613    -419.248    -406.281
  H      809.776    -419.747    -407.882
  H      810.057    -420.706    -406.409
  H      810.667    -419.027    -406.520
  P      808.546    -418.745    -404.762
  C      807.096    -416.643    -405.176
  O      807.163    -417.943    -404.593
  C      806.503    -416.706    -406.590
  O      805.130    -417.161    -406.525
  C      806.479    -415.301    -407.211
  O      806.566    -415.345    -408.634
  C      805.096    -414.786    -406.823
  O      804.645    -413.736    -407.667
  C      804.270    -416.071    -406.897
  N      799.252    -415.231    -406.608
  C      800.120    -415.006    -407.653
  N      799.565    -414.465    -408.772
  N      801.392    -415.274    -407.607
  C      801.814    -415.742    -406.414
  C      801.052    -415.978    -405.292
  C      799.633    -415.716    -405.368
  O      798.830    -415.880    -404.458
  N      801.831    -416.439    -404.251
  C      803.053    -416.469    -404.744
  N      803.089    -416.065    -406.060
  O      809.638    -417.577    -404.696
  O      808.796    -419.794    -403.716
  H      804.710    -414.047    -408.589
  H      809.963    -417.465    -403.785
  H      798.270    -415.012    -406.701
  H      803.943    -416.770    -404.201
  H      803.939    -416.255    -407.923
  H      805.162    -414.380    -405.802
  H      798.642    -414.078    -408.795
  H      807.271    -414.673    -406.827
  H      800.227    -414.026    -409.436
  H      807.052    -417.431    -407.204
  H      808.123    -416.243    -405.215
  H      806.527    -415.973    -404.533
  P      808.004    -415.038    -409.287
  C      808.043    -417.073    -410.956
  O      808.012    -415.669    -410.759
  O      809.009    -415.970    -408.466
  O      808.393    -413.603    -409.232
  H      809.517    -415.439    -407.838
  H      808.043    -417.286    -412.005
  H      807.181    -417.516    -410.502
  H      808.928    -417.476    -410.510

 6  7  8  9  10  11  12  13  14  15  26  29  33  34 0
 6-311+G(2d,p)
 ****
 36  38  39  40  41 0
 6-311+G(2d,p)
 ****
 1  2  3  4  5  16  17  18  19  20  21  22  23  24  25 0
 3-21G
 ****
 27  28  30  31  32  35  37  42  43  44  45  46  47 0
 3-21G
 ****
 48  49 0
 3-21G
 ****


