%nproc=1
%NoSave
%Mem=1900MB
#P OB98/GEN NMR

erre ene a

0 1
  C     -254.482     391.755     388.965
  O     -255.064     391.236     390.150
  P     -256.292     390.207     390.083
  C     -258.304     391.657     389.199
  O     -257.639     391.033     390.285
  C     -259.806     391.369     389.297
  O     -260.091     390.042     388.797
  C     -260.293     391.442     390.740
  O     -260.818     392.736     391.029
  C     -261.339     390.349     390.799
  O     -262.588     390.811     390.251
  C     -260.725     389.276     389.871
  N     -259.702     388.370     390.437
  C     -259.914     387.792     391.690
  O     -260.923     387.982     392.360
  N     -258.889     387.015     392.168
  C     -257.731     386.729     391.499
  O     -256.734     386.245     392.021
  C     -257.691     387.129     390.095
  C     -258.651     387.936     389.640
  O     -256.146     389.396     391.454
  O     -256.312     389.310     388.889
  H     -262.412     391.120     389.335
  H     -255.709     388.537     391.299
  H     -258.971     386.718     393.128
  H     -256.855     386.800     389.480
  H     -258.623     388.282     388.608
  H     -261.495     388.649     389.415
  H     -261.547     390.057     391.826
  H     -259.488     391.192     391.439
  H     -260.349     392.089     388.667
  H     -257.900     391.281     388.256
  H     -258.120     392.736     389.225
  P     -260.473     393.439     392.425
  C     -262.466     392.486     393.725
  O     -261.891     393.635     393.145
  O     -259.619     394.661     392.334
  O     -259.772     392.268     393.258
  H     -258.788     392.363     393.206
  H     -263.324     392.786     394.328
  H     -261.745     391.967     394.363
  H     -262.818     391.812     392.935
  H     -253.683     392.419     389.221
  H     -255.224     392.288     388.407
  H     -254.100     390.950     388.373

 3  4  5  6  7  8  9  10  11  12  13  23  28  29  30  31  32 0
 6-311+G(2d,p)
 ****
 33  34 0
 6-311+G(2d,p)
 ****
 1  2  14  15  16  17  18  19  20  21  22  24  25  26  27 0
 3-21G
 ****
 35  36  37  38  39  40  41  42  43  44  45 0
 3-21G
 ****


