%nproc=1
%NoSave
%Mem=1900MB
#P OB98/GEN NMR

erre ene a

0 1
  C      152.581       1.910      51.387
  O      153.484       0.829      51.502
  H      153.113       2.766      50.964
  H      152.201       2.188      52.373
  H      151.749       1.655      50.725
  P      152.916      -0.608      51.924
  C      152.607      -1.638      49.578
  O      151.972      -1.103      50.728
  C      151.638      -2.519      48.780
  O      150.567      -1.675      48.256
  C      152.279      -3.236      47.574
  O      151.562      -4.463      47.385
  C      151.984      -2.244      46.462
  O      152.226      -2.774      45.185
  C      150.536      -1.884      46.826
  N      149.992      -0.715      46.147
  C      149.422      -0.905      44.891
  O      149.343      -1.990      44.315
  N      148.932       0.223      44.286
  C      148.940       1.483      44.806
  O      148.456       2.450      44.230
  C      149.562       1.621      46.132
  C      150.046       0.533      46.734
  O      152.310      -0.693      53.285
  O      154.191      -1.570      51.788
  H      154.563      -1.747      52.673
  H      151.662      -3.566      45.054
  H      148.511       0.104      43.376
  H      149.595       2.611      46.569
  H      150.500       0.602      47.718
  H      149.881      -2.743      46.644
  H      152.638      -1.374      46.555
  H      153.341      -3.451      47.718
  H      151.169      -3.239      49.463
  H      153.463      -2.236      49.906
  H      152.968      -0.814      48.951
  P      152.279      -5.884      47.177
  C      153.010      -6.192      49.643
  O      153.428      -6.029      48.290
  O      152.761      -6.121      45.783
  O      151.189      -6.976      47.604
  H      151.366      -7.814      47.137
  H      153.870      -6.276      50.274
  H      152.417      -7.078      49.729
  H      152.430      -5.344      49.942

 6  7  8  9  10  11  12  13  14  15  16  27  31  32  33  34  35 0
 6-311+G(2d,p)
 ****
 36  37 0
 6-311+G(2d,p)
 ****
 1  2  3  4  5  17  18  19  20  21  22  23  24  25 0
 3-21G
 ****
 26  28  29  30  38  39  40  41  42  43  44  45 0
 3-21G
 ****


