%nproc=1
%NoSave
%Mem=1900MB
#P OB98/GEN NMR

erre ene a

0 1
  C     -291.216    -231.016     594.549
  O     -291.038    -229.938     593.651
  H     -290.535    -231.824     594.263
  H     -292.240    -231.382     594.495
  H     -290.979    -230.704     595.569
  P     -291.969    -228.629     593.809
  C     -290.057    -226.991     593.236
  O     -291.335    -227.490     592.871
  C     -289.577    -225.935     592.235
  O     -289.207    -226.624     591.016
  C     -290.676    -224.899     591.908
  O     -290.252    -223.555     592.058
  C     -291.145    -225.340     590.510
  O     -291.707    -224.314     589.727
  C     -289.893    -226.006     589.903
  N     -290.174    -226.992     588.856
  C     -290.878    -226.552     587.748
  O     -291.269    -225.397     587.562
  N     -291.141    -227.510     586.789
  C     -290.782    -228.825     586.865
  O     -291.036    -229.642     585.983
  C     -290.057    -229.242     588.091
  C     -289.810    -228.311     589.015
  O     -292.245    -228.202     595.208
  O     -293.318    -229.021     593.023
  H     -291.898    -224.691     588.845
  H     -294.023    -229.220     593.676
  H     -291.626    -227.193     585.974
  H     -289.776    -230.278     588.169
  H     -289.286    -228.591     589.931
  H     -289.230    -225.244     589.486
  H     -291.917    -226.108     590.626
  H     -291.524    -224.998     592.599
  H     -288.670    -225.449     592.628
  H     -289.352    -227.837     593.266
  H     -290.100    -226.547     594.250
  P     -290.182    -222.773     593.453
  C     -288.114    -221.282     592.744
  O     -289.476    -221.352     593.216
  O     -289.729    -223.575     594.630
  O     -291.723    -222.355     593.727
  H     -291.831    -222.350     594.702
  H     -287.822    -220.257     592.648
  H     -288.041    -221.764     591.791
  H     -287.469    -221.773     593.442

 6  7  8  9  10  11  12  13  14  15  16  26  31  32  33  34  35 0
 6-311+G(2d,p)
 ****
 36  37 0
 6-311+G(2d,p)
 ****
 1  2  3  4  5  17  18  19  20  21  22  23  24  25 0
 3-21G
 ****
 27  28  29  30  38  39  40  41  42  43  44  45 0
 3-21G
 ****


