%nproc=1
%NoSave
%Mem=1900MB
#P OB98/GEN NMR

erre ene a

0 1
  C     -322.065     388.966    -387.758
  O     -323.326     388.940    -388.391
  H     -322.177     388.598    -386.735
  H     -321.685     389.989    -387.722
  H     -321.356     388.324    -388.291
  P     -323.383     389.449    -389.909
  C     -323.924     387.168    -391.019
  O     -322.961     388.196    -390.824
  C     -323.413     386.134    -392.028
  O     -323.426     386.729    -393.364
  C     -321.979     385.655    -391.751
  O     -321.893     384.260    -392.061
  C     -321.154     386.437    -392.751
  O     -319.915     385.802    -393.042
  C     -322.122     386.501    -393.931
  N     -320.348     387.346    -398.564
  C     -320.646     386.155    -397.923
  N     -320.433     385.011    -398.609
  N     -321.107     386.097    -396.704
  C     -321.293     387.314    -396.140
  C     -321.030     388.554    -396.659
  C     -320.500     388.608    -398.008
  O     -320.198     389.625    -398.629
  N     -321.330     389.551    -395.763
  C     -321.765     388.908    -394.690
  N     -321.764     387.547    -394.869
  O     -322.118     390.424    -390.027
  O     -324.658     390.125    -390.321
  H     -320.109     384.897    -393.371
  H     -322.285     391.136    -390.680
  H     -319.987     387.333    -399.505
  H     -322.088     389.374    -393.763
  H     -322.157     385.561    -394.497
  H     -320.940     387.446    -392.367
  H     -320.117     384.987    -399.566
  H     -321.657     385.822    -390.721
  H     -320.657     384.132    -398.158
  H     -324.111     385.294    -392.059
  H     -324.851     387.619    -391.398
  H     -324.134     386.676    -390.061
  P     -321.651     383.238    -390.847
  C     -323.753     381.725    -391.095
  O     -323.082     382.717    -390.323
  O     -321.157     384.203    -389.668
  O     -320.646     382.174    -391.141
  H     -320.205     384.056    -389.510
  H     -324.684     381.479    -390.628
  H     -323.143     380.848    -391.158
  H     -323.937     382.103    -392.079

 6  7  8  9  10  11  12  13  14  15  26  29  33  34 0
 6-311+G(2d,p)
 ****
 36  38  39  40  41 0
 6-311+G(2d,p)
 ****
 1  2  3  4  5  16  17  18  19  20  21  22  23  24  25 0
 3-21G
 ****
 27  28  30  31  32  35  37  42  43  44  45  46  47 0
 3-21G
 ****
 48  49 0
 3-21G
 ****


