%nproc=1
%NoSave
%Mem=1900MB
#P OB98/GEN NMR

erre ene a

0 1
  C       71.276     143.407     973.574
  O       71.697     143.696     974.891
  H       70.809     144.297     973.148
  H       70.546     142.591     973.583
  H       72.138     143.135     972.951
  P       72.398     142.497     975.702
  C       70.568     142.387     977.540
  O       71.210     141.722     976.461
  C       69.949     141.366     978.499
  O       68.953     140.574     977.823
  C       70.948     140.390     979.108
  O       71.612     140.958     980.233
  C       70.034     139.227     979.492
  O       69.359     139.488     980.737
  C       69.042     139.216     978.320
  N       70.233     134.436     977.179
  C       69.845     134.993     978.388
  N       69.835     134.168     979.459
  N       69.525     136.254     978.530
  C       69.618     136.962     977.383
  C       69.974     136.519     976.126
  C       70.302     135.119     975.968
  O       70.582     134.548     974.924
  N       69.942     137.542     975.207
  C       69.600     138.606     975.915
  N       69.414     138.313     977.247
  O       73.165     143.245     976.889
  O       73.317     141.637     974.901
  H       70.009     139.532     981.451
  H       73.962     142.733     977.128
  H       70.450     133.457     977.134
  H       69.483     139.606     975.516
  H       68.033     138.917     978.643
  H       70.594     138.304     979.618
  H       70.373     133.314     979.477
  H       71.674     140.052     978.345
  H       69.573     134.575     980.345
  H       69.435     141.938     979.292
  H       69.778     143.034     977.145
  H       71.305     143.004     978.071
  P       73.152     140.588     980.451
  C       72.540     138.356     981.637
  O       73.219     138.985     980.569
  O       73.445     141.076     981.947
  O       74.094     141.204     979.464
  H       74.410     141.151     982.096
  H       72.681     137.297     981.575
  H       71.496     138.581     981.577
  H       72.929     138.714     982.567

 6  7  8  9  10  11  12  13  14  15  26  29  33  34 0
 6-311+G(2d,p)
 ****
 36  38  39  40  41 0
 6-311+G(2d,p)
 ****
 1  2  3  4  5  16  17  18  19  20  21  22  23  24  25 0
 3-21G
 ****
 27  28  30  31  32  35  37  42  43  44  45  46  47 0
 3-21G
 ****
 48  49 0
 3-21G
 ****


