%nproc=1
%NoSave
%Mem=1900MB
#P OB98/GEN NMR

erre ene a

0 1
  C     -110.624    -217.409     476.237
  O     -111.609    -216.573     475.624
  P     -112.019    -216.621     474.083
  C     -110.652    -214.581     473.129
  O     -110.830    -215.990     473.222
  C     -109.385    -214.233     472.324
  O     -109.221    -212.781     472.311
  C     -108.111    -214.831     472.940
  O     -107.209    -215.373     471.980
  C     -107.598    -213.692     473.811
  O     -106.221    -213.815     474.141
  C     -107.989    -212.460     472.991
  N     -105.776    -208.256     474.865
  C     -105.202    -209.318     474.194
  N     -103.866    -209.269     474.003
  N     -105.880    -210.348     473.755
  C     -107.193    -210.314     474.079
  C     -107.874    -209.319     474.750
  C     -107.127    -208.159     475.186
  O     -107.580    -207.185     475.768
  N     -109.205    -209.627     474.886
  C     -109.327    -210.809     474.309
  N     -108.129    -211.261     473.796
  O     -113.402    -216.147     473.766
  O     -111.945    -218.182     473.710
  H     -105.741    -214.048     473.329
  H     -112.625    -218.344     473.030
  H     -105.215    -207.478     475.157
  H     -110.251    -211.371     474.219
  H     -107.239    -212.224     472.229
  H     -108.157    -213.716     474.754
  H     -103.269    -208.574     474.423
  H     -108.353    -215.690     473.577
  H     -103.428    -210.149     473.715
  H     -109.524    -214.574     471.286
  H     -110.540    -214.226     474.160
  H     -111.538    -214.105     472.699
  P     -106.927    -216.909     471.632
  C     -104.513    -217.012     472.505
  O     -105.838    -217.474     472.680
  O     -106.120    -216.882     470.255
  O     -108.153    -217.752     471.500
  H     -106.628    -217.351     469.564
  H     -103.845    -217.657     473.083
  H     -104.429    -215.983     472.884
  H     -104.224    -217.045     471.450
  H     -110.548    -217.168     477.277
  H     -109.677    -217.250     475.764
  H     -110.909    -218.435     476.129

 3  4  5  6  7  8  9  10  11  12  23  26  30  31 0
 6-311+G(2d,p)
 ****
 33  35  36  37  38 0
 6-311+G(2d,p)
 ****
 1  2  13  14  15  16  17  18  19  20  21  22  24  25 0
 3-21G
 ****
 27  28  29  32  34  39  40  41  42  43  44  45  46  47  48  49 0
 3-21G
 ****


