%nproc=1
%NoSave
%Mem=1900MB
#P OB98/GEN NMR

erre ene a

0 1
  C     -153.303    -183.204      -8.756
  O     -152.458    -184.257      -8.346
  P     -150.874    -184.055      -8.224
  C     -149.337    -182.749      -6.621
  O     -150.640    -182.848      -7.186
  C     -148.896    -181.281      -6.564
  O     -148.549    -180.843      -7.915
  C     -150.000    -180.343      -6.029
  O     -149.590    -179.504      -4.947
  C     -150.454    -179.616      -7.284
  O     -151.114    -178.390      -7.028
  C     -149.157    -179.549      -8.096
  N     -149.390    -179.233      -9.502
  C     -149.714    -177.915      -9.810
  O     -149.805    -177.009      -8.986
  N     -150.001    -177.662     -11.123
  C     -150.108    -178.590     -12.114
  O     -150.466    -178.308     -13.249
  C     -149.791    -179.972     -11.717
  C     -149.431    -180.227     -10.459
  O     -150.148    -183.899      -9.520
  O     -150.412    -185.326      -7.367
  H     -152.015    -178.593      -6.717
  H     -150.817    -185.394      -6.485
  H     -150.239    -176.711     -11.362
  H     -149.878    -180.734     -12.482
  H     -149.191    -181.236     -10.139
  H     -148.468    -178.806      -7.685
  H     -151.174    -180.262      -7.803
  H     -150.836    -180.918      -5.618
  H     -147.998    -181.225      -5.942
  H     -148.639    -183.307      -7.248
  H     -149.327    -183.205      -5.626
  P     -150.578    -178.804      -3.905
  C     -151.972    -179.659      -1.881
  O     -151.384    -179.951      -3.133
  O     -151.421    -177.705      -4.463
  O     -149.593    -178.236      -2.776
  H     -149.985    -177.443      -2.368
  H     -152.016    -180.580      -1.291
  H     -152.991    -179.293      -2.037
  H     -151.395    -178.914      -1.329
  H     -154.317    -183.546      -8.771
  H     -153.021    -182.881      -9.736
  H     -153.212    -182.387      -8.072

 3  4  5  6  7  8  9  10  11  12  13  23  28  29  30  31  32 0
 6-311+G(2d,p)
 ****
 33  34 0
 6-311+G(2d,p)
 ****
 1  2  14  15  16  17  18  19  20  21  22  24  25  26  27 0
 3-21G
 ****
 35  36  37  38  39  40  41  42  43  44  45 0
 3-21G
 ****


