%nproc=1
%NoSave
%Mem=1900MB
#P OB98/GEN NMR

erre ene a

0 1
  C     -762.249    -359.921     424.994
  O     -762.868    -359.673     426.258
  P     -762.088    -358.772     427.320
  C     -764.429    -358.117     428.426
  O     -763.053    -358.449     428.570
  C     -765.215    -358.759     429.572
  O     -765.320    -360.189     429.393
  C     -764.582    -358.530     430.951
  O     -764.982    -357.288     431.522
  C     -765.056    -359.755     431.721
  O     -766.419    -359.558     432.142
  C     -764.959    -360.841     430.643
  N     -763.660    -361.540     430.458
  C     -763.220    -362.456     431.407
  O     -763.841    -362.767     432.417
  N     -762.014    -363.067     431.143
  C     -761.293    -362.967     429.984
  O     -760.262    -363.585     429.769
  C     -761.886    -362.095     428.941
  C     -763.008    -361.414     429.238
  O     -761.934    -357.366     426.590
  O     -760.776    -359.338     427.748
  H     -766.775    -360.438     432.354
  H     -760.998    -357.170     426.419
  H     -761.643    -363.673     431.840
  H     -761.380    -362.014     428.004
  H     -763.453    -360.778     428.474
  H     -765.705    -361.631     430.823
  H     -764.477    -359.888     432.627
  H     -763.482    -358.587     430.869
  H     -766.228    -358.343     429.560
  H     -764.793    -358.476     427.465
  H     -764.533    -357.022     428.437
  P     -763.890    -356.167     431.843
  C     -765.372    -354.351     430.790
  O     -764.704    -354.795     431.960
  O     -762.688    -356.144     430.949
  O     -763.498    -356.466     433.383
  H     -762.665    -357.014     433.419
  H     -766.004    -353.499     431.042
  H     -766.000    -355.153     430.386
  H     -764.645    -354.037     430.031
  H     -762.890    -360.535     424.397
  H     -761.316    -360.422     425.146
  H     -762.078    -358.992     424.492

 3  4  5  6  7  8  9  10  11  12  13  23  28  29  30  31  32 0
 6-311+G(2d,p)
 ****
 33  34 0
 6-311+G(2d,p)
 ****
 1  2  14  15  16  17  18  19  20  21  22  24  25  26  27 0
 3-21G
 ****
 35  36  37  38  39  40  41  42  43  44  45 0
 3-21G
 ****


