%nproc=1
%NoSave
%Mem=1900MB
#P OB98/GEN NMR

erre ene a

0 1
  C      -16.059      85.319     205.139
  O      -14.760      85.834     205.351
  H      -16.190      85.131     204.069
  H      -16.812      86.040     205.465
  H      -16.184      84.377     205.680
  P      -14.375      86.211     206.863
  C      -11.932      85.396     206.603
  O      -12.798      86.503     206.812
  C      -10.582      85.866     206.060
  O      -10.726      86.340     204.711
  C       -9.954      87.009     206.850
  O       -9.259      86.510     207.981
  C       -8.995      87.580     205.814
  O       -7.794      86.784     205.780
  C       -9.775      87.412     204.501
  N       -9.351      92.136     202.527
  C       -8.428      91.288     203.029
  N       -8.617      90.073     203.586
  C       -9.919      89.746     203.589
  C      -10.973      90.514     203.115
  C      -10.648      91.758     202.557
  N      -11.596      92.624     202.049
  N      -12.175      89.855     203.290
  C      -11.842      88.689     203.807
  N      -10.493      88.590     204.040
  O      -14.833      85.251     207.907
  O      -14.995      87.685     206.976
  H       -7.352      86.906     206.638
  H      -14.837      88.186     206.156
  H       -7.398      91.633     202.978
  H      -12.533      87.877     204.009
  H       -9.117      87.111     203.678
  H       -8.690      88.604     206.043
  H      -10.692      87.777     207.116
  H       -9.910      84.998     206.034
  H      -12.385      84.688     205.900
  H      -11.298      93.566     201.850
  H      -12.571      92.393     202.191
  H      -11.798      84.890     207.566
  P       -9.233      87.323     209.362
  C       -9.718      85.285     210.854
  O       -8.754      86.256     210.463
  O      -10.486      88.061     209.673
  O       -7.961      88.287     209.230
  H       -8.011      89.003     209.891
  H       -9.290      84.632     211.586
  H      -10.017      84.715     209.999
  H      -10.572      85.778     211.271

 6  7  8  9  10  11  12  13  14  15  25  28  32  33  34  35 0
 6-311+G(2d,p)
 ****
 36  39  40 0
 6-311+G(2d,p)
 ****
 1  2  3  4  5  16  17  18  19  20  21  22  23  24 0
 3-21G
 ****
 26  27  29  30  31  37  38  41  42  43  44  45  46  47 0
 3-21G
 ****
 48 0
 3-21G
 ****


