%nproc=1
%NoSave
%Mem=1900MB
#P OB98/GEN NMR

erre ene a

0 1
  C      -78.169     -39.291    -275.554
  O      -77.552     -39.192    -276.826
  P      -77.380     -40.546    -277.674
  C      -78.369     -39.651    -279.903
  O      -77.213     -40.103    -279.208
  C      -78.027     -39.211    -281.328
  O      -77.192     -38.030    -281.269
  C      -77.293     -40.272    -282.148
  O      -77.757     -40.185    -283.495
  C      -75.846     -39.817    -282.097
  O      -75.098     -40.313    -283.208
  C      -76.013     -38.289    -282.058
  N      -74.839     -37.620    -281.505
  C      -74.519     -36.366    -282.034
  O      -75.166     -35.910    -282.975
  N      -73.446     -35.685    -281.518
  C      -72.693     -36.253    -280.626
  N      -71.640     -35.538    -280.144
  C      -72.923     -37.628    -280.132
  C      -74.015     -38.234    -280.594
  O      -78.845     -41.185    -277.630
  O      -76.338     -41.480    -277.150
  H      -75.486     -39.933    -284.028
  H      -78.801     -42.160    -277.641
  H      -72.244     -38.067    -279.417
  H      -74.275     -39.235    -280.268
  H      -76.196     -37.895    -283.065
  H      -75.374     -40.176    -281.174
  H      -77.447     -41.285    -281.767
  H      -78.961     -38.924    -281.829
  H      -71.494     -34.605    -280.509
  H      -78.790     -38.790    -279.372
  H      -71.000     -35.900    -279.449
  H      -79.122     -40.446    -279.912
  P      -78.061     -41.558    -284.270
  C      -79.641     -40.861    -286.171
  O      -78.306     -41.128    -285.795
  O      -79.560     -41.872    -283.782
  O      -77.161     -42.722    -284.026
  H      -79.847     -42.732    -284.140
  H      -79.647     -40.453    -287.184
  H      -80.093     -40.130    -285.490
  H      -80.225     -41.789    -286.163
  H      -78.218     -38.321    -275.105
  H      -77.597     -39.945    -274.930
  H      -79.159     -39.682    -275.667

 3  4  5  6  7  8  9  10  11  12  13  21  23  27  28  29  30  32 0
 6-311+G(2d,p)
 ****
 34  35 0
 6-311+G(2d,p)
 ****
 1  2  14  15  16  17  18  19  20  22  24  25  26 0
 3-21G
 ****
 31  33  36  37  38  39  40  41  42  43  44  45  46 0
 3-21G
 ****


