%nproc=1
%NoSave
%Mem=1900MB
#P OB98/GEN NMR

erre ene a

0 1
  C     -143.964     236.207     -64.801
  O     -142.749     235.566     -65.191
  P     -141.676     235.299     -64.024
  C     -139.980     236.706     -62.655
  O     -140.965     236.694     -63.678
  C     -139.027     237.890     -62.832
  O     -138.250     237.793     -64.041
  C     -139.744     239.232     -62.900
  O     -140.088     239.667     -61.598
  C     -138.686     240.109     -63.568
  O     -137.744     240.620     -62.601
  C     -137.994     239.137     -64.531
  N     -136.685     240.706     -69.172
  C     -136.049     240.902     -67.960
  N     -134.892     241.593     -67.990
  N     -136.514     240.457     -66.820
  C     -137.679     239.781     -66.939
  C     -138.385     239.500     -68.087
  C     -137.867     240.002     -69.342
  O     -138.376     239.831     -70.443
  N     -139.493     238.734     -67.816
  C     -139.522     238.665     -66.498
  N     -138.410     239.231     -65.919
  O     -140.534     234.448     -64.756
  O     -142.246     234.562     -62.853
  H     -137.158     239.900     -62.318
  H     -140.547     233.526     -64.431
  H     -136.288     241.074     -70.020
  H     -140.307     238.203     -65.920
  H     -136.906     239.277     -64.529
  H     -139.133     240.985     -64.052
  H     -134.477     241.962     -68.832
  H     -140.628     239.155     -63.545
  H     -134.410     241.747     -67.110
  H     -138.332     237.884     -61.983
  H     -139.413     235.770     -62.673
  H     -140.481     236.749     -61.684
  P     -141.645     239.738     -61.221
  C     -143.431     241.611     -61.427
  O     -142.259     241.021     -61.951
  O     -141.627     240.147     -59.674
  O     -142.393     238.459     -61.432
  H     -142.275     239.603     -59.183
  H     -143.422     242.679     -61.656
  H     -143.495     241.480     -60.342
  H     -144.306     241.154     -61.895
  H     -144.593     236.330     -65.658
  H     -143.743     237.166     -64.381
  H     -144.466     235.606     -64.072

 3  4  5  6  7  8  9  10  11  12  23  26  30  31 0
 6-311+G(2d,p)
 ****
 33  35  36  37  38 0
 6-311+G(2d,p)
 ****
 1  2  13  14  15  16  17  18  19  20  21  22  24  25 0
 3-21G
 ****
 27  28  29  32  34  39  40  41  42  43  44  45  46  47  48  49 0
 3-21G
 ****


