%nproc=1
%NoSave
%Mem=1900MB
#P OB98/GEN NMR

erre ene a

0 1
  C     -261.766    -100.151     -35.524
  O     -261.811     -99.231     -36.595
  P     -262.760     -97.939     -36.552
  C     -260.704     -96.400     -36.658
  O     -261.866     -96.761     -35.927
  C     -260.712     -94.911     -37.015
  O     -259.398     -94.524     -37.505
  C     -261.740     -94.516     -38.084
  O     -262.178     -93.195     -37.750
  C     -260.904     -94.495     -39.349
  O     -261.510     -93.746     -40.395
  C     -259.580     -93.934     -38.811
  N     -258.464     -94.218     -39.705
  C     -258.192     -93.269     -40.692
  O     -258.927     -92.287     -40.829
  N     -257.131     -93.474     -41.537
  C     -256.467     -94.585     -41.467
  N     -255.422     -94.733     -42.326
  C     -256.799     -95.669     -40.524
  C     -257.789     -95.416     -39.670
  O     -264.081     -98.144     -35.891
  O     -262.876     -97.507     -38.088
  H     -260.968     -93.859     -41.206
  H     -263.508     -98.099     -38.566
  H     -256.251     -96.600     -40.540
  H     -258.104     -96.149     -38.942
  H     -259.649     -92.848     -38.674
  H     -260.761     -95.520     -39.713
  H     -262.587     -95.201     -38.150
  H     -260.893     -94.345     -36.094
  H     -255.218     -93.958     -42.946
  H     -260.691     -96.982     -37.584
  H     -254.791     -95.520     -42.298
  H     -259.807     -96.658     -36.087
  P     -263.714     -92.765     -37.902
  C     -264.471     -93.533     -35.582
  O     -264.571     -93.750     -36.977
  O     -264.199     -92.642     -39.310
  O     -263.811     -91.362     -37.131
  H     -264.636     -90.909     -37.384
  H     -265.290     -94.056     -35.081
  H     -264.531     -92.466     -35.345
  H     -263.519     -93.930     -35.217
  H     -261.074    -100.934     -35.755
  H     -262.739    -100.569     -35.372
  H     -261.451     -99.647     -34.634

 3  4  5  6  7  8  9  10  11  12  13  23  27  28  29  30  32 0
 6-311+G(2d,p)
 ****
 34  35 0
 6-311+G(2d,p)
 ****
 1  2  14  15  16  17  18  19  20  21  22  24  25  26 0
 3-21G
 ****
 31  33  36  37  38  39  40  41  42  43  44  45  46 0
 3-21G
 ****


