%nproc=1
%NoSave
%Mem=1900MB
#P OB98/GEN NMR

erre ene a

0 1
  C        0.761      31.865     -72.586
  O       -0.074      30.817     -73.038
  H        1.765      31.467     -72.421
  H        0.380      32.263     -71.642
  H        0.814      32.661     -73.335
  P       -1.553      31.226     -73.513
  C       -3.750      31.851     -72.219
  O       -2.389      31.464     -72.165
  C       -4.299      32.084     -70.810
  O       -4.266      30.829     -70.085
  C       -3.504      33.112     -70.002
  O       -4.415      33.841     -69.177
  C       -2.611      32.251     -69.125
  O       -2.179      32.943     -67.956
  C       -3.521      31.040     -68.868
  N       -2.768      29.848     -68.484
  C       -2.637      29.601     -67.114
  O       -3.132      30.376     -66.294
  N       -1.916      28.511     -66.701
  C       -1.319      27.765     -67.577
  N       -0.598      26.714     -67.103
  C       -1.392      28.013     -69.031
  C       -2.132      29.053     -69.410
  O       -2.114      29.834     -74.068
  O       -1.597      32.345     -74.497
  H       -1.563      33.659     -68.227
  H       -1.916      29.078     -73.490
  H       -0.868      27.370     -69.722
  H       -2.248      29.303     -70.457
  H       -4.242      31.262     -68.071
  H       -1.719      31.944     -69.682
  H       -2.942      33.802     -70.633
  H       -5.352      32.376     -70.891
  H       -0.557      26.594     -66.099
  H       -4.346      31.081     -72.717
  H       -0.049      26.102     -67.688
  H       -3.818      32.770     -72.810
  P       -4.787      35.350     -69.556
  C       -3.597      37.644     -69.670
  O       -3.563      36.311     -69.174
  O       -6.129      35.820     -69.106
  O       -4.717      35.335     -71.164
  H       -5.465      35.867     -71.499
  H       -2.725      38.169     -69.341
  H       -4.471      38.139     -69.303
  H       -3.620      37.626     -70.740

 6  7  8  9  10  11  12  13  14  15  16  26  30  31  32  33  35 0
 6-311+G(2d,p)
 ****
 37  38 0
 6-311+G(2d,p)
 ****
 1  2  3  4  5  17  18  19  20  21  22  23  24  25 0
 3-21G
 ****
 27  28  29  34  36  39  40  41  42  43  44  45  46 0
 3-21G
 ****


