%nproc=1
%NoSave
%Mem=1900MB
#P OB98/GEN NMR

erre ene a

0 1
  C     -238.178      -5.213     111.179
  O     -237.728      -3.863     111.029
  P     -236.520      -3.610     110.000
  C     -234.411      -3.549     111.506
  O     -235.198      -4.304     110.595
  C     -232.958      -4.049     111.541
  O     -232.897      -5.428     112.008
  C     -232.261      -4.009     110.177
  O     -230.876      -3.722     110.402
  C     -232.388      -5.441     109.688
  O     -231.435      -5.731     108.666
  C     -232.202      -6.196     111.002
  N     -230.917     -11.133     110.751
  C     -230.175     -10.008     110.806
  N     -230.595      -8.722     110.851
  C     -231.939      -8.670     110.876
  C     -232.829      -9.731     110.820
  C     -232.268     -11.016     110.752
  N     -233.025     -12.164     110.670
  N     -234.136      -9.270     110.823
  C     -234.029      -7.956     110.874
  N     -232.725      -7.548     110.938
  O     -236.226      -2.044     110.160
  O     -236.846      -3.963     108.586
  H     -231.710      -5.259     107.850
  H     -236.536      -1.565     109.367
  H     -229.097     -10.155     110.812
  H     -234.854      -7.262     110.859
  H     -231.144      -6.269     111.298
  H     -233.392      -5.609     109.279
  H     -232.681      -3.287     109.471
  H     -232.400      -3.434     112.259
  H     -234.836      -3.615     112.511
  H     -232.548     -13.048     110.598
  H     -234.029     -12.089     110.622
  H     -234.458      -2.490     111.229
  P     -230.525      -2.234     110.892
  C     -229.860      -1.076     108.668
  O     -230.852      -1.269     109.657
  O     -228.920      -2.230     110.966
  O     -231.145      -1.857     112.200
  H     -228.617      -1.560     111.607
  H     -230.340      -1.064     107.684
  H     -229.105      -1.865     108.678
  H     -229.371      -0.111     108.835
  H     -238.980      -5.245     111.887
  H     -237.370      -5.822     111.527
  H     -238.521      -5.582     110.235

 3  4  5  6  7  8  9  10  11  12  22  25  29  30  31  32 0
 6-311+G(2d,p)
 ****
 33  36  37 0
 6-311+G(2d,p)
 ****
 1  2  13  14  15  16  17  18  19  20  21  23  24  26 0
 3-21G
 ****
 27  28  34  35  38  39  40  41  42  43  44  45  46  47  48 0
 3-21G
 ****


