%nproc=1
%NoSave
%Mem=1900MB
#P OB98/GEN NMR

erre ene a

0 1
  C      720.472      43.337    -158.533
  O      719.609      44.300    -159.101
  H      721.502      43.610    -158.764
  H      720.267      42.346    -158.954
  H      720.355      43.310    -157.444
  P      718.029      44.132    -158.906
  C      716.041      45.579    -159.755
  O      717.416      45.542    -159.390
  C      715.338      46.732    -159.064
  O      715.408      46.603    -157.619
  C      715.924      48.121    -159.354
  O      715.629      48.596    -160.653
  C      715.250      48.924    -158.260
  O      713.875      49.163    -158.619
  C      715.350      47.948    -157.062
  N      716.522      48.211    -156.215
  C      716.482      49.370    -155.432
  O      715.502      50.128    -155.474
  N      717.565      49.671    -154.647
  C      718.605      48.894    -154.659
  N      719.651      49.251    -153.859
  C      718.694      47.684    -155.481
  C      717.639      47.389    -156.233
  O      717.578      43.669    -157.560
  O      717.576      43.160    -160.105
  H      713.422      49.474    -157.808
  H      716.599      43.016    -160.021
  H      719.603      47.077    -155.476
  H      717.625      46.518    -156.869
  H      714.445      47.999    -156.442
  H      715.707      49.891    -158.099
  H      717.009      48.127    -159.172
  H      714.277      46.687    -159.339
  H      719.558      50.097    -153.308
  H      715.591      44.614    -159.483
  H      720.532      48.743    -153.870
  H      715.954      45.717    -160.837
  P      716.418      49.912    -161.138
  C      717.874      50.499    -163.228
  O      717.136      49.520    -162.522
  O      717.624      50.023    -160.090
  O      715.596      51.162    -161.206
  H      717.415      50.667    -159.389
  H      718.279      50.066    -164.119
  H      718.671      50.858    -162.611
  H      717.230      51.313    -163.488

 6  7  8  9  10  11  12  13  14  15  16  26  30  31  32  33  35 0
 6-311+G(2d,p)
 ****
 37  38 0
 6-311+G(2d,p)
 ****
 1  2  3  4  5  17  18  19  20  21  22  23  24  25 0
 3-21G
 ****
 27  28  29  34  36  39  40  41  42  43  44  45  46 0
 3-21G
 ****


