%nproc=1
%NoSave
%Mem=1900MB
#P OB98/GEN NMR

erre ene a

0 1
  C      -99.706    -116.747     322.462
  O     -100.119    -116.972     323.793
  H     -100.051    -115.757     322.149
  H     -100.144    -117.499     321.801
  H      -98.615    -116.781     322.392
  P      -99.716    -118.380     324.449
  C     -102.158    -119.236     324.661
  O     -100.977    -118.835     325.342
  C     -103.397    -118.730     325.406
  O     -103.500    -119.426     326.682
  C     -103.372    -117.223     325.704
  O     -104.697    -116.702     325.560
  C     -102.978    -117.169     327.167
  O     -103.389    -115.955     327.795
  C     -103.676    -118.417     327.695
  N     -103.625    -117.397     332.625
  C     -104.321    -116.801     331.594
  N     -105.130    -115.766     331.922
  N     -104.235    -117.183     330.344
  C     -103.409    -118.242     330.167
  C     -102.655    -118.917     331.100
  C     -102.744    -118.469     332.475
  O     -102.137    -118.944     333.431
  N     -101.921    -119.915     330.514
  C     -102.231    -119.849     329.230
  N     -103.131    -118.849     328.971
  O      -98.612    -117.982     325.540
  O      -99.219    -119.415     323.496
  H     -103.321    -116.081     328.764
  H      -97.975    -118.712     325.668
  H     -103.721    -117.056     333.566
  H     -101.833    -120.487     328.451
  H     -104.749    -118.266     327.846
  H     -101.887    -117.254     327.272
  H     -105.272    -115.440     332.862
  H     -102.685    -116.661     325.065
  H     -105.660    -115.322     331.180
  H     -104.287    -119.004     324.828
  H     -102.185    -120.331     324.609
  H     -102.146    -118.827     323.648
  P     -104.884    -115.383     324.664
  C     -105.597    -113.784     326.586
  O     -105.963    -114.426     325.369
  O     -105.663    -115.934     323.372
  O     -103.595    -114.727     324.277
  H     -105.063    -115.943     322.609
  H     -106.413    -113.184     326.932
  H     -104.743    -113.162     326.418
  H     -105.360    -114.524     327.322

 6  7  8  9  10  11  12  13  14  15  26  29  33  34 0
 6-311+G(2d,p)
 ****
 36  38  39  40  41 0
 6-311+G(2d,p)
 ****
 1  2  3  4  5  16  17  18  19  20  21  22  23  24  25 0
 3-21G
 ****
 27  28  30  31  32  35  37  42  43  44  45  46  47 0
 3-21G
 ****
 48  49 0
 3-21G
 ****


