%nproc=1
%NoSave
%Mem=1900MB
#P OB98/GEN NMR

erre ene a

0 1
  C     -327.431      27.581     610.184
  O     -327.905      26.294     609.844
  H     -328.289      28.231     610.367
  H     -326.833      28.001     609.367
  H     -326.821      27.532     611.096
  P     -326.843      25.177     609.409
  C     -326.437      22.950     610.680
  O     -327.378      23.782     609.994
  C     -327.157      21.943     611.588
  O     -327.599      22.646     612.804
  C     -328.407      21.316     610.948
  O     -328.560      19.995     611.510
  C     -329.508      22.242     611.452
  O     -330.779      21.677     611.265
  C     -329.032      22.469     612.892
  N     -329.678      23.628     613.515
  C     -329.968      23.512     614.877
  O     -329.688      22.473     615.479
  N     -330.585      24.556     615.513
  C     -330.943      25.601     614.833
  N     -331.567      26.595     615.516
  C     -330.716      25.734     613.364
  C     -330.085      24.726     612.777
  O     -325.413      25.481     609.723
  O     -327.065      25.015     607.833
  H     -330.938      21.464     610.319
  H     -326.341      25.453     607.344
  H     -331.059      26.622     612.846
  H     -329.873      24.733     611.720
  H     -329.226      21.589     613.503
  H     -329.499      23.191     610.893
  H     -328.352      21.258     609.861
  H     -326.449      21.181     611.908
  H     -331.703      26.464     616.508
  H     -325.803      23.613     611.276
  H     -331.917      27.461     615.088
  H     -325.815      22.420     609.961
  P     -328.059      18.677     610.758
  C     -327.441      16.299     611.581
  O     -328.365      17.392     611.678
  O     -326.646      18.742     610.267
  O     -329.081      18.491     609.526
  H     -328.611      18.052     608.795
  H     -327.750      15.511     612.236
  H     -326.464      16.632     611.861
  H     -327.420      15.938     610.574

 6  7  8  9  10  11  12  13  14  15  16  26  30  31  32  33  35 0
 6-311+G(2d,p)
 ****
 37  38 0
 6-311+G(2d,p)
 ****
 1  2  3  4  5  17  18  19  20  21  22  23  24  25 0
 3-21G
 ****
 27  28  29  34  36  39  40  41  42  43  44  45  46 0
 3-21G
 ****


