%nproc=1
%NoSave
%Mem=1900MB
#P OB98/GEN NMR

erre ene a

0 1
  C       84.329    -347.655     -97.019
  O       84.665    -346.792     -98.086
  H       84.897    -348.581     -97.128
  H       83.263    -347.894     -97.037
  H       84.593    -347.196     -96.061
  P       83.874    -345.401     -98.221
  C       85.615    -344.251     -96.681
  O       84.253    -344.600     -96.876
  C       85.756    -342.738     -96.530
  O       85.050    -342.264     -95.364
  C       87.187    -342.243     -96.343
  O       87.958    -342.276     -97.533
  C       86.914    -340.825     -95.865
  O       86.532    -340.005     -96.982
  C       85.717    -341.054     -94.909
  N       86.122    -341.188     -93.510
  C       86.745    -340.077     -92.928
  O       86.933    -339.052     -93.583
  N       87.177    -340.168     -91.624
  C       87.016    -341.275     -90.969
  N       87.504    -341.326     -89.696
  C       86.350    -342.462     -91.537
  C       85.935    -342.355     -92.796
  O       82.412    -345.498     -98.517
  O       84.694    -344.581     -99.324
  H       85.900    -340.523     -97.513
  H       84.237    -343.714     -99.453
  H       86.250    -343.362     -90.947
  H       85.453    -343.191     -93.290
  H       84.992    -340.235     -94.991
  H       87.785    -340.353     -95.398
  H       87.687    -342.793     -95.537
  H       85.281    -342.271     -97.404
  H       87.994    -340.506     -89.356
  H       86.187    -344.615     -97.542
  H       87.670    -342.211     -89.229
  H       85.999    -344.726     -95.774
  P       89.556    -342.257     -97.391
  C       89.581    -344.858     -97.561
  O       89.990    -343.703     -96.846
  O       89.796    -341.291     -96.141
  O       90.309    -341.813     -98.609
  H       89.954    -340.372     -96.427
  H       89.951    -345.732     -97.068
  H       89.971    -344.818     -98.556
  H       88.512    -344.895     -97.598

 6  7  8  9  10  11  12  13  14  15  16  26  30  31  32  33  35 0
 6-311+G(2d,p)
 ****
 37  38 0
 6-311+G(2d,p)
 ****
 1  2  3  4  5  17  18  19  20  21  22  23  24  25 0
 3-21G
 ****
 27  28  29  34  36  39  40  41  42  43  44  45  46 0
 3-21G
 ****


