%nproc=1
%NoSave
%Mem=1900MB
#P OB98/GEN NMR

erre ene a

0 1
  C     -215.833      81.123     188.794
  O     -214.621      80.403     188.697
  H     -216.684      80.450     188.659
  H     -215.898      81.576     189.787
  H     -215.863      81.915     188.040
  P     -214.348      79.627     187.319
  C     -215.480      77.403     188.057
  O     -215.527      78.542     187.208
  C     -216.315      76.284     187.442
  O     -216.208      75.086     188.246
  C     -217.805      76.599     187.367
  O     -218.139      77.390     186.239
  C     -218.385      75.200     187.248
  O     -218.205      74.710     185.907
  C     -217.497      74.414     188.225
  N     -220.107      71.591     191.609
  C     -219.688      71.332     190.351
  N     -218.981      72.129     189.524
  C     -218.696      73.299     190.118
  C     -219.048      73.701     191.397
  C     -219.795      72.788     192.161
  N     -220.251      73.058     193.431
  N     -218.593      74.981     191.645
  C     -217.962      75.334     190.544
  N     -218.025      74.363     189.580
  O     -213.061      78.729     187.635
  O     -214.180      80.484     186.109
  H     -218.404      73.754     185.923
  H     -212.674      78.385     186.807
  H     -219.962      70.358     189.955
  H     -217.457      76.280     190.391
  H     -217.328      73.379     187.904
  H     -219.456      75.166     187.463
  H     -218.168      77.057     188.294
  H     -215.910      76.057     186.449
  H     -215.888      77.671     189.037
  H     -220.901      72.403     193.838
  H     -220.152      73.996     193.793
  H     -214.442      77.077     188.174
  P     -219.623      78.003     186.175
  C     -220.007      76.799     183.904
  O     -220.476      77.026     185.227
  O     -219.430      79.311     185.276
  O     -220.227      78.311     187.505
  H     -220.053      80.013     185.546
  H     -220.674      76.133     183.398
  H     -219.030      76.365     183.942
  H     -219.964      77.729     183.376

 6  7  8  9  10  11  12  13  14  15  25  28  32  33  34  35 0
 6-311+G(2d,p)
 ****
 36  39  40 0
 6-311+G(2d,p)
 ****
 1  2  3  4  5  16  17  18  19  20  21  22  23  24 0
 3-21G
 ****
 26  27  29  30  31  37  38  41  42  43  44  45  46  47 0
 3-21G
 ****
 48 0
 3-21G
 ****


