%nproc=1
%NoSave
%Mem=1900MB
#P OB98/GEN NMR

erre ene a

0 1
  C     -804.575     257.469     258.767
  O     -804.349     256.759     259.975
  P     -804.662     255.187     260.003
  C     -802.118     254.758     259.685
  O     -803.442     254.449     259.257
  C     -801.540     253.625     260.529
  O     -801.714     252.361     259.821
  C     -800.043     253.766     260.849
  O     -799.826     253.200     262.134
  C     -799.392     252.877     259.797
  O     -798.073     252.480     260.165
  C     -800.405     251.748     259.721
  N     -798.559     247.520     257.505
  C     -798.502     247.964     258.779
  N     -799.029     249.097     259.293
  C     -799.653     249.809     258.338
  C     -799.754     249.499     256.995
  C     -799.180     248.289     256.577
  N     -799.242     247.831     255.275
  N     -800.452     250.491     256.312
  C     -800.755     251.379     257.243
  N     -800.312     250.991     258.476
  O     -805.870     255.053     258.959
  O     -805.023     254.628     261.332
  H     -798.117     252.036     261.024
  H     -806.697     254.812     259.439
  H     -797.975     247.325     259.487
  H     -801.298     252.296     257.071
  H     -800.315     251.040     260.547
  H     -799.327     253.415     258.838
  H     -799.677     254.795     260.822
  H     -802.115     253.549     261.457
  H     -802.154     255.663     260.291
  H     -798.923     246.887     255.094
  H     -799.865     248.292     254.624
  H     -801.485     254.950     258.813
  P     -798.651     253.837     263.028
  C     -800.152     254.882     264.868
  O     -799.286     255.111     263.771
  O     -797.668     254.488     261.930
  O     -797.936     252.858     263.902
  H     -796.754     254.512     262.281
  H     -800.029     255.708     265.588
  H     -799.937     253.928     265.371
  H     -801.184     254.884     264.517
  H     -804.322     258.499     258.906
  H     -805.607     257.389     258.494
  H     -803.967     257.054     257.990

 3  4  5  6  7  8  9  10  11  12  22  25  29  30  31  32 0
 6-311+G(2d,p)
 ****
 33  36  37 0
 6-311+G(2d,p)
 ****
 1  2  13  14  15  16  17  18  19  20  21  23  24  26 0
 3-21G
 ****
 27  28  34  35  38  39  40  41  42  43  44  45  46  47  48 0
 3-21G
 ****


