%nproc=1
%NoSave
%Mem=1900MB
#P OB98/GEN NMR

erre ene a

0 1
  C      350.652     725.150     -83.638
  O      349.939     725.302     -82.423
  H      350.440     726.015     -84.277
  H      350.307     724.250     -84.146
  H      351.728     725.100     -83.452
  P      350.331     724.321     -81.222
  C      347.960     724.262     -80.179
  O      349.312     724.632     -80.010
  C      347.052     725.166     -79.339
  O      347.256     724.859     -77.927
  C      347.322     726.679     -79.526
  O      346.085     727.372     -79.500
  C      348.151     727.040     -78.304
  O      348.035     728.425     -77.964
  C      347.570     726.097     -77.265
  N      348.731     727.429     -72.529
  C      347.647     727.785     -73.330
  N      346.743     728.615     -72.768
  N      347.470     727.346     -74.555
  C      348.434     726.483     -74.949
  C      349.557     726.064     -74.270
  C      349.748     726.578     -72.924
  O      350.711     726.319     -72.189
  N      350.311     725.210     -75.030
  C      349.655     725.114     -76.186
  N      348.497     725.876     -76.173
  O      351.722     724.919     -80.703
  O      350.459     722.877     -81.589
  H      348.750     728.628     -77.314
  H      352.436     724.267     -80.851
  H      348.825     727.799     -71.609
  H      349.969     724.533     -77.032
  H      346.643     726.486     -76.807
  H      349.209     726.815     -78.488
  H      346.791     728.964     -71.817
  H      347.849     726.898     -80.463
  H      345.925     728.865     -73.315
  H      346.011     724.922     -79.564
  H      347.822     723.231     -79.868
  H      347.688     724.352     -81.244
  P      345.380     727.664     -80.919
  C      344.724     730.009     -80.042
  O      344.295     728.845     -80.711
  O      344.485     726.359     -81.161
  O      346.343     727.881     -82.035
  H      344.870     725.817     -81.866
  H      343.911     730.702     -79.975
  H      345.530     730.456     -80.586
  H      345.057     729.753     -79.058

 6  7  8  9  10  11  12  13  14  15  26  29  33  34 0
 6-311+G(2d,p)
 ****
 36  38  39  40  41 0
 6-311+G(2d,p)
 ****
 1  2  3  4  5  16  17  18  19  20  21  22  23  24  25 0
 3-21G
 ****
 27  28  30  31  32  35  37  42  43  44  45  46  47 0
 3-21G
 ****
 48  49 0
 3-21G
 ****


