%nproc=1
%NoSave
%Mem=1900MB
#P OB98/GEN NMR

erre ene a

0 1
  C      507.742    -666.820     511.189
  O      506.436    -667.343     511.030
  H      507.896    -666.588     512.249
  H      507.850    -665.903     510.611
  H      508.486    -667.560     510.876
  P      506.002    -667.729     509.534
  C      506.405    -666.006     507.633
  O      505.664    -666.341     508.797
  C      506.288    -664.513     507.339
  O      506.537    -663.733     508.534
  C      507.250    -664.006     506.275
  O      506.755    -664.248     504.970
  C      507.310    -662.524     506.615
  O      506.178    -661.806     506.079
  C      507.276    -662.541     508.146
  N      510.520    -659.809     510.885
  C      509.237    -659.513     510.468
  N      508.768    -658.287     510.789
  N      508.487    -660.342     509.793
  C      509.100    -661.520     509.519
  C      510.353    -661.932     509.888
  C      511.172    -661.017     510.669
  O      512.290    -661.248     511.111
  N      510.614    -663.203     509.436
  C      509.526    -663.538     508.765
  N      508.583    -662.542     508.771
  O      504.558    -668.402     509.723
  O      506.939    -668.635     508.802
  H      505.938    -662.180     505.215
  H      504.425    -669.073     509.030
  H      511.052    -659.135     511.412
  H      509.380    -664.483     508.262
  H      506.728    -661.677     508.557
  H      508.208    -662.044     506.194
  H      509.397    -657.516     510.995
  H      508.249    -664.448     506.407
  H      507.836    -658.054     510.465
  H      505.248    -664.315     507.039
  H      506.010    -666.576     506.784
  H      507.460    -666.275     507.792
  P      507.796    -664.185     503.746
  C      510.044    -662.896     503.476
  O      508.722    -662.902     504.010
  O      506.883    -663.743     502.507
  O      508.520    -665.465     503.488
  H      507.347    -663.938     501.667
  H      510.530    -661.979     503.736
  H      509.999    -662.986     502.411
  H      510.596    -663.719     503.880

 6  7  8  9  10  11  12  13  14  15  26  29  33  34 0
 6-311+G(2d,p)
 ****
 36  38  39  40  41 0
 6-311+G(2d,p)
 ****
 1  2  3  4  5  16  17  18  19  20  21  22  23  24  25 0
 3-21G
 ****
 27  28  30  31  32  35  37  42  43  44  45  46  47 0
 3-21G
 ****
 48  49 0
 3-21G
 ****


