%nproc=1
%NoSave
%Mem=1900MB
#P OB98/GEN NMR

erre ene a

0 1
  C       12.227     444.861    -895.220
  O       11.700     446.101    -895.680
  P       11.568     447.317    -894.650
  C       13.547     448.582    -895.720
  O       13.008     448.025    -894.520
  C       15.069     448.754    -895.600
  O       15.739     447.484    -895.470
  C       15.698     449.414    -896.810
  O       15.415     450.807    -896.830
  C       17.153     449.048    -896.640
  O       17.811     449.937    -895.720
  C       17.061     447.629    -896.020
  N       17.366     446.570    -896.970
  C       18.721     446.213    -897.080
  O       19.569     446.824    -896.440
  N       19.063     445.200    -897.950
  C       18.144     444.598    -898.640
  N       18.538     443.599    -899.470
  C       16.709     444.941    -898.550
  C       16.391     445.923    -897.700
  O       10.906     446.996    -893.350
  O       10.723     448.407    -895.480
  H       17.340     449.849    -894.870
  H       10.192     448.933    -894.850
  H       15.980     444.389    -899.140
  H       15.373     446.244    -897.580
  H       17.769     447.529    -895.170
  H       17.710     449.088    -897.570
  H       15.313     448.939    -897.730
  H       15.273     449.360    -894.690
  H       19.533     443.383    -899.510
  H       13.082     449.563    -895.910
  H       17.892     443.024    -900.000
  H       13.288     447.934    -896.560
  P       14.118     451.296    -897.640
  C       13.040     452.568    -895.660
  O       12.935     451.513    -896.590
  O       13.670     449.983    -898.450
  O       14.364     452.440    -898.580
  H       13.306     450.224    -899.310
  H       12.054     452.769    -895.240
  H       13.428     453.477    -896.130
  H       13.704     452.271    -894.830
  H       12.247     444.160    -896.028
  H       11.609     444.481    -894.434
  H       13.221     445.010    -894.852

 3  4  5  6  7  8  9  10  11  12  13  23  27  28  29  30  32 0
 6-311+G(2d,p)
 ****
 34  35 0
 6-311+G(2d,p)
 ****
 1  2  14  15  16  17  18  19  20  21  22  24  25  26 0
 3-21G
 ****
 31  33  36  37  38  39  40  41  42  43  44  45  46 0
 3-21G
 ****


