%nproc=1
%NoSave
%Mem=1900MB
#P OB98/GEN NMR

erre ene a

0 1
  C     -800.356    -473.208    -253.564
  O     -799.159    -472.508    -253.765
  H     -800.126    -474.198    -253.155
  H     -800.887    -473.332    -254.506
  H     -800.991    -472.673    -252.843
  P     -799.279    -471.002    -254.341
  C     -798.537    -469.989    -252.058
  O     -799.538    -470.055    -253.075
  C     -797.744    -468.697    -252.194
  O     -798.628    -467.608    -252.555
  C     -797.064    -468.251    -250.919
  O     -795.863    -468.983    -250.639
  C     -796.827    -466.782    -251.185
  O     -795.637    -466.581    -251.961
  C     -798.066    -466.399    -252.022
  N     -800.223    -461.861    -251.111
  C     -799.316    -462.277    -252.046
  N     -798.801    -463.502    -252.214
  C     -799.348    -464.361    -251.337
  C     -800.293    -464.104    -250.349
  C     -800.733    -462.782    -250.257
  N     -801.632    -462.358    -249.307
  N     -800.547    -465.241    -249.630
  C     -799.818    -466.176    -250.178
  N     -799.058    -465.697    -251.213
  O     -800.698    -471.038    -255.096
  O     -798.173    -470.577    -255.248
  H     -794.891    -466.812    -251.383
  H     -800.555    -471.136    -256.050
  H     -798.964    -461.487    -252.705
  H     -799.766    -467.213    -249.843
  H     -797.815    -465.745    -252.865
  H     -796.733    -466.208    -250.258
  H     -797.766    -468.349    -250.055
  H     -797.015    -468.828    -253.001
  H     -797.858    -470.862    -252.167
  H     -799.031    -470.055    -251.084
  H     -801.864    -461.381    -249.257
  H     -801.926    -463.021    -248.586
  P     -795.764    -469.791    -249.254
  C     -796.349    -472.046    -250.433
  O     -796.676    -471.101    -249.425
  O     -796.615    -468.897    -248.230
  O     -794.388    -470.030    -248.772
  H     -796.216    -468.945    -247.341
  H     -797.053    -472.851    -250.409
  H     -795.365    -472.428    -250.258
  H     -796.383    -471.571    -251.391

 6  7  8  9  10  11  12  13  14  15  25  28  32  33  34  35 0
 6-311+G(2d,p)
 ****
 36  37  40 0
 6-311+G(2d,p)
 ****
 1  2  3  4  5  16  17  18  19  20  21  22  23  24 0
 3-21G
 ****
 26  27  29  30  31  38  39 41  42  43  44  45  46  47  48 0
 3-21G
 ****


