%nproc=1
%NoSave
%Mem=1900MB
#P OB98/GEN NMR

erre ene a

0 1
  C      196.316     563.824    -760.656
  O      195.824     563.174    -759.502
  H      195.492     564.305    -761.195
  H      197.030     564.595    -760.353
  H      196.817     563.108    -761.311
  P      194.723     562.030    -759.726
  C      195.955     560.520    -758.018
  O      194.720     561.113    -758.404
  C      195.924     560.178    -756.529
  O      195.836     561.416    -755.776
  C      194.749     559.279    -756.103
  O      195.243     558.083    -755.483
  C      194.010     560.088    -755.058
  O      193.558     559.306    -753.953
  C      195.036     561.135    -754.622
  N      191.759     562.942    -751.162
  C      192.500     561.814    -751.189
  N      193.435     561.441    -752.089
  C      193.599     562.390    -753.031
  C      192.925     563.598    -753.119
  C      191.952     563.854    -752.142
  N      191.156     564.981    -752.149
  N      193.352     564.304    -754.233
  C      194.229     563.516    -754.824
  N      194.392     562.334    -754.139
  O      195.390     561.088    -760.838
  O      193.381     562.518    -760.156
  H      193.642     559.861    -753.158
  H      194.747     560.904    -761.544
  H      192.315     561.105    -750.385
  H      194.728     563.718    -755.762
  H      195.698     560.755    -753.831
  H      193.136     560.562    -755.525
  H      194.089     559.019    -756.938
  H      196.881     559.707    -756.263
  H      196.771     561.222    -758.207
  H      190.412     565.026    -751.475
  H      191.229     565.611    -752.937
  H      196.125     559.620    -758.622
  P      194.972     556.699    -756.266
  C      197.093     555.852    -755.014
  O      195.793     555.550    -755.509
  O      195.792     556.894    -757.631
  O      193.527     556.417    -756.515
  H      195.392     556.363    -758.346
  H      197.504     554.986    -754.539
  H      197.028     556.651    -754.305
  H      197.724     556.146    -755.826

 6  7  8  9  10  11  12  13  14  15  25  28  32  33  34  35 0
 6-311+G(2d,p)
 ****
 36  39  40 0
 6-311+G(2d,p)
 ****
 1  2  3  4  5  16  17  18  19  20  21  22  23  24 0
 3-21G
 ****
 26  27  29  30  31  37  38  41  42  43  44  45  46  47  48 0
 3-21G
 ****


