%nproc=1
%NoSave
%Mem=1900MB
#P OB98/GEN NMR

erre ene a

0 1
  C        9.489    -451.888     260.780
  O        9.464    -453.296     260.650
  H        9.404    -451.618     261.836
  H       10.444    -451.518     260.398
  H        8.676    -451.430     260.211
  P        8.054    -454.026     260.865
  C        7.424    -454.017     258.347
  O        7.108    -453.557     259.653
  C        6.154    -454.387     257.587
  O        5.378    -453.177     257.368
  C        6.400    -455.042     256.217
  O        5.423    -456.070     256.023
  C        6.131    -453.912     255.240
  O        5.739    -454.380     253.953
  C        5.039    -453.141     255.969
  N        3.476    -450.286     252.064
  C        3.199    -451.557     252.419
  N        3.615    -452.226     253.512
  C        4.342    -451.429     254.310
  C        4.703    -450.109     254.088
  C        4.248    -449.538     252.887
  N        4.582    -448.265     252.482
  N        5.503    -449.647     255.114
  C        5.642    -450.674     255.930
  N        4.960    -451.777     255.485
  O        7.453    -453.248     262.132
  O        8.117    -455.500     261.097
  H        5.522    -453.615     253.391
  H        7.761    -453.672     262.952
  H        2.564    -452.117     251.729
  H        6.244    -450.688     256.826
  H        4.044    -453.592     255.843
  H        7.035    -453.305     255.126
  H        7.406    -455.462     256.104
  H        5.546    -455.045     258.224
  H        8.063    -454.907     258.426
  H        4.300    -447.975     251.558
  H        5.245    -447.736     253.030
  H        7.974    -453.236     257.810
  P        5.941    -457.488     255.479
  C        7.518    -458.130     257.450
  O        7.401    -457.760     256.083
  O        6.222    -457.207     253.932
  O        4.961    -458.600     255.668
  H        6.046    -458.004     253.406
  H        8.550    -458.274     257.694
  H        6.981    -459.040     257.620
  H        7.111    -457.355     258.065

 6  7  8  9  10  11  12  13  14  15  25  28  32  33  34  35 0
 6-311+G(2d,p)
 ****
 36  39  40 0
 6-311+G(2d,p)
 ****
 1  2  3  4  5  16  17  18  19  20  21  22  23  24 0
 3-21G
 ****
 26  27  29  30  31  37  38  41  42  43  44  45  46  47 0
 3-21G
 ****
 48 0
 3-21G
 ****


