%nproc=1
%NoSave
%Mem=1900MB
#P OB98/GEN NMR

erre ene a

0 1
  C      -25.327    -160.418    -109.002
  O      -23.930    -160.320    -109.180
  H      -25.661    -161.396    -109.362
  H      -25.835    -159.640    -109.579
  H      -25.583    -160.324    -107.944
  P      -23.234    -158.949    -108.718
  C      -23.720    -157.727    -110.955
  O      -23.954    -157.778    -109.554
  C      -24.715    -156.781    -111.629
  O      -26.050    -157.356    -111.533
  C      -24.767    -155.381    -110.995
  O      -24.949    -154.413    -112.035
  C      -26.026    -155.436    -110.147
  O      -26.559    -154.140    -109.892
  C      -26.912    -156.325    -111.013
  N      -31.448    -155.295    -109.084
  C      -30.597    -154.515    -109.845
  N      -31.014    -153.263    -110.134
  N      -29.436    -154.925    -110.280
  C      -29.156    -156.207    -109.938
  C      -29.906    -157.078    -109.182
  C      -31.181    -156.604    -108.687
  O      -31.967    -157.240    -107.990
  N      -29.258    -158.279    -109.027
  C      -28.121    -158.133    -109.687
  N      -28.017    -156.894    -110.260
  O      -21.777    -159.029    -109.377
  O      -23.175    -158.723    -107.244
  H      -27.405    -154.254    -109.407
  H      -21.123    -158.549    -108.832
  H      -32.327    -154.927    -108.765
  H      -27.349    -158.885    -109.779
  H      -27.351    -155.781    -111.860
  H      -25.811    -155.915    -109.184
  H      -31.911    -152.889    -109.861
  H      -23.878    -155.133    -110.411
  H      -30.412    -152.677    -110.702
  H      -24.474    -156.722    -112.697
  H      -23.834    -158.734    -111.372
  H      -22.697    -157.379    -111.136
  P      -23.782    -153.335    -112.258
  C      -24.593    -151.844    -110.293
  O      -23.516    -152.569    -110.871
  O      -24.490    -152.223    -113.167
  O      -22.567    -153.887    -112.927
  H      -24.139    -152.268    -114.075
  H      -24.268    -151.391    -109.380
  H      -25.405    -152.511    -110.091
  H      -24.917    -151.084    -110.973

 6  7  8  9  10  11  12  13  14  15  26  29  33  34 0
 6-311+G(2d,p)
 ****
 36  38  39  40  41 0
 6-311+G(2d,p)
 ****
 1  2  3  4  5  16  17  18  19  20  21  22  23  24  25 0
 3-21G
 ****
 27  28  30  31  32  35  37  42  43  44  45  46  47 0
 3-21G
 ****
 48  49 0
 3-21G
 ****


