%nproc=1
%NoSave
%Mem=1900MB
#P OB98/GEN NMR

erre ene a

0 1
  C       99.353    -398.980      71.159
  O      100.483    -399.573      71.775
  P      100.485    -401.170      71.936
  C       99.272    -402.846      73.511
  O       99.537    -401.484      73.186
  C       98.117    -402.943      74.501
  O       97.011    -402.145      74.044
  C       97.565    -404.346      74.672
  O       98.414    -405.114      75.506
  C       96.196    -404.063      75.279
  O       96.283    -403.934      76.710
  C       95.814    -402.715      74.629
  N       94.757    -402.854      73.641
  C       93.475    -403.107      74.153
  O       93.308    -403.222      75.367
  N       92.432    -403.267      73.274
  C       92.651    -403.185      71.997
  N       91.581    -403.345      71.173
  C       93.987    -402.936      71.416
  C       94.984    -402.788      72.285
  O      101.952    -401.478      72.489
  O      100.178    -401.921      70.682
  H       96.698    -404.764      77.024
  H      102.229    -402.384      72.249
  H       94.115    -402.875      70.348
  H       95.999    -402.604      71.949
  H       95.475    -402.002      75.390
  H       95.484    -404.865      75.075
  H       97.446    -404.836      73.697
  H       98.455    -402.535      75.466
  H       90.682    -403.520      71.599
  H      100.164    -403.285      73.969
  H       91.642    -403.275      70.166
  H       99.047    -403.392      72.591
  P       98.207    -406.703      75.520
  C       96.517    -408.284      76.628
  O       96.917    -406.938      76.442
  O       99.396    -407.191      76.476
  O       98.216    -407.402      74.204
  H       99.434    -408.166      76.486
  H       95.737    -408.314      77.390
  H       97.360    -408.890      76.959
  H       96.112    -408.684      75.693
  H       99.485    -397.919      71.118
  H       98.476    -399.208      71.728
  H       99.245    -399.365      70.166

 3  4  5  6  7  8  9  10  11  12  13  21  23  27  28  29  30  32 0
 6-311+G(2d,p)
 ****
 34  35 0
 6-311+G(2d,p)
 ****
 1  2  14  15  16  17  18  19  20  22  24  25  26 0
 3-21G
 ****
 31  33  36  37  38  39  40  41  42  43  44  45  46 0
 3-21G
 ****


