%nproc=1
%NoSave
%Mem=1900MB
#P OB98/GEN NMR

erre ene a

0 1
  C     -117.353      31.017    -422.311
  O     -117.418      29.612    -422.183
  H     -117.862      31.473    -421.459
  H     -117.849      31.335    -423.231
  H     -116.307      31.349    -422.318
  P     -116.743      28.753    -423.359
  C     -118.981      28.252    -424.579
  O     -117.714      28.897    -424.633
  C     -119.750      28.476    -425.877
  O     -119.999      29.887    -426.091
  C     -119.038      27.967    -427.127
  O     -119.247      26.579    -427.308
  C     -119.701      28.807    -428.212
  O     -120.983      28.267    -428.591
  C     -119.866      30.167    -427.506
  N     -117.838      33.396    -430.810
  C     -119.007      32.670    -430.881
  N     -119.717      32.779    -432.029
  N     -119.445      31.896    -429.922
  C     -118.615      31.858    -428.850
  C     -117.436      32.545    -428.656
  C     -116.984      33.426    -429.717
  O     -115.990      34.150    -429.687
  N     -116.891      32.264    -427.433
  C     -117.713      31.375    -426.903
  N     -118.764      31.086    -427.736
  O     -116.972      27.235    -422.897
  O     -115.300      29.039    -423.612
  H     -121.475      28.940    -429.095
  H     -116.235      26.688    -423.227
  H     -117.562      33.991    -431.576
  H     -117.590      30.917    -425.931
  H     -120.782      30.682    -427.822
  H     -119.096      28.846    -429.123
  H     -119.285      33.079    -432.897
  H     -117.968      28.207    -427.090
  H     -120.566      32.231    -432.099
  H     -120.728      27.989    -425.770
  H     -119.558      28.669    -423.745
  H     -118.834      27.179    -424.410
  P     -117.980      25.674    -427.695
  C     -118.843      25.449    -430.146
  O     -117.776      25.840    -429.288
  O     -118.529      24.180    -427.554
  O     -116.755      25.916    -426.866
  H     -117.781      23.553    -427.500
  H     -118.561      25.617    -431.165
  H     -119.714      26.026    -429.917
  H     -119.055      24.410    -430.001

 6  7  8  9  10  11  12  13  14  15  26  29  33  34 0
 6-311+G(2d,p)
 ****
 36  38  39  40  41 0
 6-311+G(2d,p)
 ****
 1  2  3  4  5  16  17  18  19  20  21  22  23  24  25 0
 3-21G
 ****
 27  28  30  31  32  35  37  42  43  44  45  46  47 0
 3-21G
 ****
 48  49 0
 3-21G
 ****


