%nproc=1
%NoSave
%Mem=1900MB
#P OB98/GEN NMR

erre ene a

0 1
  C      -34.283     -78.658     128.314
  O      -34.230     -79.836     127.543
  P      -32.891     -80.716     127.489
  C      -33.136     -80.470     124.938
  O      -32.830     -81.351     126.014
  C      -32.871     -81.161     123.604
  O      -31.449     -81.238     123.328
  C      -33.341     -82.608     123.549
  O      -34.730     -82.843     123.616
  C      -32.611     -83.110     122.314
  O      -33.294     -82.737     121.118
  C      -31.262     -82.356     122.426
  N      -30.181     -83.235     122.867
  C      -29.131     -83.403     121.973
  O      -29.081     -82.862     120.870
  N      -28.134     -84.252     122.375
  C      -28.111     -84.967     123.537
  O      -27.207     -85.745     123.813
  C      -29.257     -84.760     124.433
  C      -30.225     -83.917     124.066
  O      -32.735     -81.703     128.595
  O      -31.730     -79.615     127.431
  H      -32.765     -83.063     120.364
  H      -31.774     -79.017     126.664
  H      -27.369     -84.399     121.736
  H      -29.262     -85.303     125.370
  H      -31.082     -83.750     124.712
  H      -30.982     -81.931     121.454
  H      -32.524     -84.202     122.309
  H      -32.912     -83.137     124.410
  H      -33.322     -80.560     122.810
  H      -32.499     -79.583     125.013
  H      -34.178     -80.144     125.019
  P      -35.519     -83.078     124.990
  C      -37.101     -85.056     124.442
  O      -36.969     -83.666     124.643
  O      -35.445     -81.984     126.002
  O      -34.769     -84.375     125.570
  H      -34.783     -84.340     126.545
  H      -38.139     -85.273     124.173
  H      -36.858     -85.600     125.359
  H      -36.454     -85.389     123.626
  H      -35.253     -78.215     128.222
  H      -33.542     -77.970     127.965
  H      -34.095     -78.895     129.340

 3  4  5  6  7  8  9  10  11  12  13  23  28  29  30  31  32 0
 6-311+G(2d,p)
 ****
 33  34 0
 6-311+G(2d,p)
 ****
 1  2  14  15  16  17  18  19  20  21  22  24  25  26  27 0
 3-21G
 ****
 35  36  37  38  39  40  41  42  43  44  45 0
 3-21G
 ****


