%nproc=1
%NoSave
%Mem=1900MB
#P OB98/GEN NMR

erre ene a

0 1
  C     -852.537     324.872    -261.979
  O     -851.152     325.120    -261.851
  H     -852.941     324.612    -260.998
  H     -852.701     324.033    -262.660
  H     -853.057     325.762    -262.349
  P     -850.393     325.739    -263.117
  C     -849.198     323.518    -263.745
  O     -849.059     324.869    -263.330
  C     -847.851     322.798    -263.655
  O     -846.943     323.395    -264.622
  C     -847.184     322.907    -262.271
  O     -846.504     321.676    -262.003
  C     -846.159     324.011    -262.473
  O     -845.077     323.971    -261.550
  C     -845.733     323.748    -263.923
  N     -845.090     324.909    -264.540
  C     -843.708     325.019    -264.406
  O     -842.985     324.170    -263.886
  N     -843.164     326.174    -264.911
  C     -843.841     327.204    -265.481
  O     -843.292     328.219    -265.891
  C     -845.302     327.032    -265.588
  C     -845.845     325.910    -265.116
  O     -849.842     327.134    -262.559
  O     -851.230     325.905    -264.347
  H     -850.500     327.843    -262.697
  H     -844.520     324.755    -261.714
  H     -842.159     326.267    -264.817
  H     -845.870     327.836    -266.031
  H     -846.919     325.766    -265.155
  H     -845.059     322.888    -263.969
  H     -846.644     324.994    -262.381
  H     -847.878     323.137    -261.456
  H     -847.989     321.752    -263.937
  H     -849.542     323.495    -264.789
  H     -849.944     323.018    -263.115
  P     -847.367     320.473    -261.392
  C     -846.186     321.236    -259.178
  O     -846.737     320.175    -259.954
  O     -846.889     319.254    -262.302
  O     -848.837     320.739    -261.410
  H     -845.953     319.313    -262.552
  H     -845.815     320.846    -258.253
  H     -846.945     321.964    -258.979
  H     -845.385     321.694    -259.719

 6  7  8  9  10  11  12  13  14  15  16  27  31  32  33  34  35 0
 6-311+G(2d,p)
 ****
 36  37 0
 6-311+G(2d,p)
 ****
 1  2  3  4  5  17  18  19  20  21  22  23  24  25 0
 3-21G
 ****
 26  28  29  30  38  39  40  41  42  43  44  45 0
 3-21G
 ****


