%nproc=1
%NoSave
%Mem=1900MB
#P OB98/GEN NMR

erre ene a

0 1
  C     -497.077    -546.177    -889.590
  O     -496.171    -545.840    -890.630
  H     -496.819    -545.638    -888.680
  H     -498.085    -545.895    -889.890
  H     -497.053    -547.257    -889.410
  P     -494.616    -546.196    -890.390
  C     -494.626    -548.450    -891.680
  O     -494.179    -547.106    -891.640
  C     -494.050    -549.153    -892.910
  O     -494.667    -548.663    -894.110
  C     -492.537    -548.933    -893.100
  O     -491.767    -549.780    -892.280
  C     -492.404    -549.296    -894.580
  O     -492.414    -550.725    -894.730
  C     -493.676    -548.679    -895.180
  N     -492.581    -545.813    -899.280
  C     -492.676    -547.151    -899.100
  N     -492.969    -547.839    -897.980
  C     -493.174    -546.993    -896.960
  C     -493.119    -545.603    -896.980
  C     -492.800    -545.007    -898.210
  N     -492.691    -543.657    -898.400
  N     -493.352    -545.079    -895.720
  C     -493.597    -546.136    -894.970
  N     -493.480    -547.320    -895.660
  O     -494.660    -547.237    -889.170
  O     -493.732    -545.027    -890.120
  H     -491.667    -551.070    -894.200
  H     -493.789    -547.270    -888.740
  H     -492.478    -547.772    -900.000
  H     -493.844    -546.098    -893.910
  H     -494.078    -549.272    -895.990
  H     -491.463    -548.920    -895.010
  H     -492.270    -547.871    -892.940
  H     -494.270    -550.233    -892.820
  H     -495.719    -548.473    -891.750
  H     -492.293    -543.338    -899.270
  H     -492.701    -543.053    -897.580
  H     -494.325    -548.975    -890.760
  P     -490.310    -549.264    -891.840
  C     -490.995    -548.500    -889.450
  O     -490.256    -549.409    -890.240
  O     -490.392    -547.673    -892.050
  O     -489.178    -549.885    -892.580
  H     -489.523    -547.286    -892.230
  H     -490.853    -548.730    -888.415
  H     -492.034    -548.578    -889.694
  H     -490.657    -547.503    -889.643

 6  7  8  9  10  11  12  13  14  15  25  28  32  33  34  35 0
 6-311+G(2d,p)
 ****
 36  39  40 0
 6-311+G(2d,p)
 ****
 1  2  3  4  5  16  17  18  19  20  21  22  23  24 0
 3-21G
 ****
 26  27  29  30  31  37  38  41  42  43  44  45  46  47 0
 3-21G
 ****
 48 0
 3-21G
 ****


