%nproc=1
%NoSave
%Mem=1900MB
#P OB98/GEN NMR

erre ene a

0 1
  C      -70.668     -61.689     -85.388
  O      -70.482     -60.950     -86.583
  P      -70.722     -59.368     -86.550
  C      -68.178     -58.957     -86.199
  O      -69.499     -58.707     -85.747
  C      -67.513     -57.653     -86.645
  O      -66.113     -57.912     -86.968
  C      -68.157     -57.014     -87.884
  O      -68.048     -55.590     -87.742
  C      -67.250     -57.485     -89.005
  O      -67.354     -56.693     -90.178
  C      -65.891     -57.409     -88.301
  N      -64.848     -58.161     -88.996
  C      -64.504     -57.744     -90.277
  O      -65.025     -56.790     -90.853
  N      -63.569     -58.508     -90.922
  C      -63.022     -59.670     -90.459
  O      -62.278     -60.370     -91.134
  C      -63.422     -60.061     -89.099
  C      -64.300     -59.302     -88.440
  O      -71.962     -59.206     -85.552
  O      -70.990     -58.749     -87.880
  H      -66.564     -56.870     -90.722
  H      -72.789     -59.080     -86.054
  H      -63.300     -58.214     -91.847
  H      -62.991     -60.967     -88.693
  H      -64.629     -59.578     -87.443
  H      -65.577     -56.362     -88.199
  H      -67.506     -58.517     -89.271
  H      -69.201     -57.304     -88.034
  H      -67.525     -56.949     -85.803
  H      -68.213     -59.648     -87.043
  H      -67.600     -59.432     -85.400
  P      -69.012     -54.670     -88.639
  C      -70.886     -54.751     -86.820
  O      -70.510     -54.970     -88.162
  O      -68.901     -55.414     -90.055
  O      -68.601     -53.235     -88.684
  H      -68.942     -56.381     -89.974
  H      -70.361     -53.894     -86.389
  H      -70.662     -55.643     -86.230
  H      -71.961     -54.561     -86.780
  H      -70.470     -62.724     -85.574
  H      -71.677     -61.574     -85.051
  H      -69.997     -61.327     -84.637

 3  4  5  6  7  8  9  10  11  12  13  23  28  29  30  31  32 0
 6-311+G(2d,p)
 ****
 33  34 0
 6-311+G(2d,p)
 ****
 1  2  14  15  16  17  18  19  20  21  22  24  25  26 0
 3-21G
 ****
 27  35  36  37  38  39  40  41  42  43  44  45 0
 3-21G
 ****


