%nproc=1
%NoSave
%Mem=1900MB
#P OB98/GEN NMR

erre ene a

0 1
  C     -531.905    -374.408    -138.957
  O     -532.682    -373.729    -139.927
  H     -531.096    -374.938    -139.465
  H     -532.521    -375.140    -138.428
  H     -531.469    -373.698    -138.248
  P     -533.849    -372.749    -139.437
  C     -532.198    -370.805    -139.001
  O     -533.175    -371.683    -138.445
  C     -532.638    -369.359    -138.824
  O     -533.548    -368.978    -139.873
  C     -533.376    -369.095    -137.518
  O     -532.486    -369.028    -136.416
  C     -534.077    -367.777    -137.847
  O     -533.180    -366.675    -137.695
  C     -534.446    -367.990    -139.335
  N     -535.844    -368.389    -139.514
  C     -536.797    -367.374    -139.423
  O     -536.515    -366.204    -139.160
  N     -538.100    -367.763    -139.599
  C     -538.539    -369.044    -139.756
  O     -539.732    -369.342    -139.825
  C     -537.493    -370.081    -139.821
  C     -536.214    -369.703    -139.710
  O     -535.076    -373.408    -138.906
  O     -534.172    -371.868    -140.734
  H     -533.664    -365.875    -138.011
  H     -535.015    -372.172    -141.126
  H     -538.800    -367.041    -139.521
  H     -537.803    -371.102    -139.968
  H     -535.431    -370.444    -139.746
  H     -534.284    -367.067    -139.902
  H     -534.926    -367.596    -137.200
  H     -534.138    -369.867    -137.353
  H     -531.748    -368.718    -138.894
  H     -532.084    -371.032    -140.068
  H     -531.235    -370.987    -138.502
  P     -533.030    -369.240    -134.931
  C     -532.746    -371.790    -134.733
  O     -533.672    -370.712    -134.845
  O     -533.897    -368.144    -134.412
  O     -531.700    -369.379    -134.056
  H     -531.685    -368.662    -133.388
  H     -533.280    -372.716    -134.684
  H     -532.162    -371.668    -133.845
  H     -532.101    -371.796    -135.586

 6  7  8  9  10  11  12  13  14  15  16  26  31  32  33  34  35 0
 6-311+G(2d,p)
 ****
 36  37 0
 6-311+G(2d,p)
 ****
 1  2  3  4  5  17  18  19  20  21  22  23  24  25 0
 3-21G
 ****
 27  28  29  30  38  39  40  41  42  43  44  45 0
 3-21G
 ****


