%nproc=1
%NoSave
%Mem=1900MB
#P OB98/GEN NMR

erre ene a

0 1
  C      119.983    -129.536     -12.615
  O      120.296    -130.086     -11.350
  H      120.900    -129.156     -13.071
  H      119.278    -128.711     -12.499
  H      119.553    -130.301     -13.272
  P      119.145    -130.910     -10.597
  C      120.291    -133.234     -10.865
  O      119.848    -132.216      -9.974
  C      121.740    -133.610     -10.548
  O      122.602    -132.497     -10.943
  C      122.006    -133.886      -9.062
  O      122.977    -134.938      -8.963
  C      122.630    -132.590      -8.571
  O      123.431    -132.736      -7.406
  C      123.432    -132.176      -9.812
  N      123.783    -130.752      -9.803
  C      124.512    -130.277      -8.714
  O      124.951    -130.978      -7.803
  N      124.725    -128.921      -8.697
  C      124.280    -128.018      -9.620
  O      124.487    -126.808      -9.535
  C      123.509    -128.578     -10.740
  C      123.298    -129.895     -10.778
  O      118.278    -131.500     -11.806
  O      118.317    -130.131      -9.628
  H      117.566    -130.876     -12.056
  H      123.773    -131.844      -7.174
  H      125.252    -128.560      -7.913
  H      123.131    -127.892     -11.485
  H      122.712    -130.343     -11.582
  H      124.350    -132.772      -9.891
  H      121.842    -131.854      -8.354
  H      121.111    -134.155      -8.489
  H      122.024    -134.471     -11.167
  H      120.228    -132.868     -11.892
  H      119.640    -134.111     -10.762
  P      122.534    -136.285      -8.209
  C      123.033    -138.000     -10.136
  O      123.408    -137.457      -8.869
  O      121.060    -136.504      -8.800
  O      122.612    -136.176      -6.719
  H      120.985    -136.224      -9.734
  H      123.727    -138.765     -10.415
  H      123.042    -137.224     -10.873
  H      122.050    -138.417     -10.068

 6  7  8  9  10  11  12  13  14  15  16  27  31  32  33  34  35 0
 6-311+G(2d,p)
 ****
 36  37 0
 6-311+G(2d,p)
 ****
 1  2  3  4  5  17  18  19  20  21  22  23  24  25 0
 3-21G
 ****
 26  28  29  30  38  39  40  41  42  43  44  45 0
 3-21G
 ****


