%nproc=1
%NoSave
%Mem=1900MB
#P OB98/GEN NMR

erre ene a

0 1
  C      495.321      33.070      75.014
  O      495.567      33.863      76.188
  P      494.401      34.457      77.116
  C      494.732      37.009      76.807
  O      493.940      35.865      76.497
  C      493.863      38.263      76.914
  O      493.145      38.485      75.680
  C      492.771      38.203      77.974
  O      493.282      38.325      79.290
  C      491.873      39.365      77.538
  O      492.347      40.615      78.053
  C      492.018      39.335      76.006
  N      490.811      38.883      75.325
  C      490.367      39.671      74.255
  O      490.936      40.723      73.981
  N      489.281      39.241      73.539
  C      488.630      38.184      73.921
  N      487.565      37.798      73.162
  C      488.985      37.406      75.120
  C      490.078      37.808      75.769
  O      494.758      34.527      78.564
  O      493.139      33.497      76.874
  H      492.562      33.515      77.662
  H      492.161      40.615      79.016
  H      488.388      36.560      75.430
  H      490.418      37.284      76.655
  H      492.294      40.330      75.632
  H      490.842      39.244      77.892
  H      492.218      37.261      77.872
  H      494.526      39.122      77.097
  H      487.356      38.348      72.336
  H      495.465      37.153      76.001
  H      487.004      36.981      73.355
  H      495.279      36.827      77.739
  P      492.910      37.154      80.326
  C      490.760      38.358      81.151
  O      491.326      37.200      80.559
  O      493.521      37.678      81.711
  O      493.449      35.814      79.961
  H      493.902      36.922      82.207
  H      489.726      38.458      80.813
  H      491.308      39.265      80.875
  H      490.768      38.247      82.237
  H      496.254      32.794      74.568
  H      494.746      33.639      74.314
  H      494.781      32.188      75.286

 3  4  5  6  7  8  9  10  11  12  13  24  27  28  29  30  32 0
 6-311+G(2d,p)
 ****
 34  35 0
 6-311+G(2d,p)
 ****
 1  2  14  15  16  17  18  19  20  21  22  23  25  26 0
 3-21G
 ****
 31  33  36  37  38  39  40  41  42  43  44  45  46 0
 3-21G
 ****


