%nproc=1
%NoSave
%Mem=1900MB
#P OB98/GEN NMR

erre ene a

0 1
  C     -126.907    -209.406    -194.251
  O     -127.454    -210.384    -193.393
  H     -127.222    -208.419    -193.902
  H     -127.285    -209.559    -195.264
  H     -125.815    -209.444    -194.257
  P     -126.806    -211.846    -193.380
  C     -128.805    -212.603    -191.928
  O     -127.968    -212.904    -193.039
  C     -130.063    -213.472    -191.917
  O     -130.976    -213.011    -192.939
  C     -129.766    -214.941    -192.219
  O     -129.418    -215.717    -191.080
  C     -131.087    -215.414    -192.820
  O     -131.994    -215.872    -191.802
  C     -131.640    -214.154    -193.502
  N     -133.384    -215.778    -198.027
  C     -133.783    -216.158    -196.756
  N     -134.733    -217.112    -196.697
  N     -133.273    -215.653    -195.663
  C     -132.262    -214.785    -195.883
  C     -131.767    -214.349    -197.094
  C     -132.388    -214.854    -198.302
  O     -132.086    -214.535    -199.447
  N     -130.705    -213.488    -196.925
  C     -130.508    -213.477    -195.621
  N     -131.473    -214.185    -194.941
  O     -125.930    -211.854    -192.035
  O     -125.956    -212.185    -194.566
  H     -131.707    -216.763    -191.519
  H     -125.153    -212.430    -192.156
  H     -133.832    -216.178    -198.831
  H     -129.711    -212.946    -195.118
  H     -132.712    -214.034    -193.305
  H     -130.928    -216.258    -193.499
  H     -135.099    -217.594    -197.503
  H     -128.992    -215.030    -192.987
  H     -134.918    -217.552    -195.790
  H     -130.575    -213.354    -190.955
  H     -129.074    -211.550    -192.021
  H     -128.254    -212.719    -190.995
  P     -128.142    -216.679    -191.102
  C     -128.965    -218.128    -189.076
  O     -128.543    -218.065    -190.420
  O     -127.163    -216.008    -190.033
  O     -127.483    -216.845    -192.435
  H     -126.490    -215.462    -190.475
  H     -129.184    -219.143    -188.818
  H     -129.843    -217.530    -188.950
  H     -128.188    -217.759    -188.440

 6  7  8  9  10  11  12  13  14  15  26  29  33  34 0
 6-311+G(2d,p)
 ****
 36  38  39  40  41 0
 6-311+G(2d,p)
 ****
 1  2  3  4  5  16  17  18  19  20  21  22  23  24  25 0
 3-21G
 ****
 27  28  30  31  32  35  37  42  43  44  45  46  47 0
 3-21G
 ****
 48  49 0
 3-21G
 ****


