%nproc=1
%NoSave
%Mem=1900MB
#P OB98/GEN NMR

erre ene a

0 1
  C       69.262    -294.361    -447.689
  O       69.985    -293.711    -446.653
  P       69.855    -292.112    -446.557
  C       68.315    -292.094    -444.457
  O       68.453    -291.805    -445.842
  C       67.933    -290.822    -443.689
  O       68.986    -289.845    -443.797
  C       66.678    -290.131    -444.197
  O       65.508    -290.822    -443.785
  C       66.851    -288.753    -443.579
  O       66.471    -288.780    -442.193
  C       68.372    -288.533    -443.700
  N       67.810    -284.027    -446.073
  C       67.290    -284.512    -444.925
  N       67.470    -285.728    -444.371
  C       68.291    -286.482    -445.125
  C       68.874    -286.124    -446.328
  C       68.612    -284.834    -446.806
  N       69.139    -284.343    -447.982
  N       69.635    -287.169    -446.825
  C       69.513    -288.127    -445.930
  N       68.729    -287.752    -444.877
  O       69.600    -291.678    -448.072
  O       71.046    -291.422    -445.964
  H       67.100    -289.361    -441.731
  H       70.008    -290.810    -448.263
  H       66.640    -283.836    -444.377
  H       69.985    -289.098    -445.999
  H       68.799    -288.028    -442.828
  H       66.246    -287.978    -444.068
  H       66.699    -290.061    -445.292
  H       67.820    -291.095    -442.629
  H       69.265    -292.469    -444.062
  H       68.784    -283.466    -448.322
  H       69.621    -284.994    -448.595
  H       67.558    -292.869    -444.327
  P       64.121    -290.401    -444.479
  C       64.710    -291.766    -446.576
  O       64.445    -290.474    -446.052
  O       64.091    -288.824    -444.209
  O       62.928    -291.174    -444.018
  H       64.932    -288.398    -444.437
  H       64.858    -291.687    -447.656
  H       63.867    -292.436    -446.382
  H       65.618    -292.172    -446.126
  H       69.436    -295.415    -447.638
  H       69.589    -293.991    -448.638
  H       68.217    -294.166    -447.571

 3  4  5  6  7  8  9  10  11  12  22  25  29  30  31  32 0
 6-311+G(2d,p)
 ****
 33  36  37 0
 6-311+G(2d,p)
 ****
 1  2  13  14  15  16  17  18  19  20  21  23  24  26 0
 3-21G
 ****
 27  28  34  35  38  39  40  41  42  43  44  45  46  47  48 0
 3-21G
 ****


