%nproc=1
%NoSave
%Mem=1900MB
#P OB98/GEN NMR

erre ene a

0 1
  C      -10.032     871.823     147.081
  O      -11.264     871.515     146.469
  H      -10.222     872.446     147.959
  H       -9.405     872.384     146.383
  H       -9.506     870.917     147.400
  P      -11.335     870.275     145.463
  C      -12.175     871.417     143.305
  O      -12.501     870.562     144.396
  C      -13.243     871.370     142.211
  O      -13.223     870.077     141.571
  C      -14.659     871.568     142.764
  O      -15.061     872.922     142.879
  C      -15.506     870.828     141.734
  O      -15.874     871.690     140.645
  C      -14.573     869.714     141.242
  N      -17.238     865.370     140.821
  C      -17.352     866.533     140.082
  N      -18.324     866.543     139.144
  N      -16.596     867.582     140.266
  C      -15.739     867.458     141.305
  C      -15.550     866.364     142.123
  C      -16.342     865.180     141.861
  O      -16.265     864.120     142.476
  N      -14.619     866.620     143.098
  C      -14.312     867.891     142.928
  N      -14.907     868.419     141.802
  O      -11.968     869.103     146.359
  O      -10.023     869.841     144.879
  H      -16.415     872.419     141.005
  H      -11.621     868.242     146.062
  H      -17.830     864.587     140.614
  H      -13.636     868.465     143.553
  H      -14.618     869.609     140.149
  H      -16.434     870.468     142.179
  H      -18.991     865.798     139.016
  H      -14.773     871.062     143.729
  H      -18.566     867.437     138.711
  H      -13.004     872.115     141.443
  H      -11.219     871.067     142.911
  H      -12.030     872.444     143.656
  P      -15.142     873.642     144.301
  C      -17.696     874.126     144.677
  O      -16.417     874.599     144.312
  O      -13.913     874.663     144.259
  O      -15.071     872.734     145.483
  H      -13.140     874.296     144.730
  H      -18.403     874.927     144.616
  H      -17.665     873.752     145.679
  H      -17.989     873.340     144.012

 6  7  8  9  10  11  12  13  14  15  26  29  33  34 0
 6-311+G(2d,p)
 ****
 36  38  39  40  41 0
 6-311+G(2d,p)
 ****
 1  2  3  4  5  16  17  18  19  20  21  22  23  24  25 0
 3-21G
 ****
 27  28  30  31  32  35  37  42  43  44  45  46  47 0
 3-21G
 ****
 48  49 0
 3-21G
 ****


