%nproc=1
%NoSave
%Mem=1900MB
#P OB98/GEN NMR

erre ene a

0 1
  C       74.400      85.737      57.411
  O       73.736      86.846      56.837
  H       73.748      84.863      57.336
  H       74.616      85.921      58.467
  H       75.327      85.528      56.872
  P       74.452      88.277      56.892
  C       75.935      87.508      54.917
  O       75.893      88.087      56.216
  C       76.265      88.567      53.867
  O       77.557      89.149      54.131
  C       76.335      88.030      52.441
  O       75.038      87.789      51.935
  C       77.106      89.148      51.760
  O       76.250      90.266      51.478
  C       78.138      89.515      52.856
  N       79.434      88.871      52.674
  C       80.558      89.678      52.893
  O       80.421      90.860      53.204
  N       81.802      89.120      52.732
  C       81.920      87.867      52.427
  N       83.180      87.377      52.289
  C       80.762      86.975      52.223
  C       79.564      87.540      52.348
  O       74.481      88.951      58.229
  O       73.657      89.148      55.809
  H       75.736      90.021      50.682
  H       72.941      89.654      56.237
  H       80.907      85.933      51.978
  H       78.659      86.953      52.214
  H       78.298      90.600      52.882
  H       77.544      88.834      50.814
  H       76.945      87.120      52.408
  H       75.519      89.368      53.949
  H       83.945      88.023      52.459
  H       74.945      87.081      54.723
  H       83.394      86.393      52.215
  H       76.672      86.698      54.879
  P       74.758      86.636      50.857
  C       73.196      85.376      52.463
  O       74.396      85.323      51.707
  O       75.829      86.449      49.837
  O       73.343      87.042      50.230
  H       73.453      87.783      49.583
  H       73.061      84.451      52.984
  H       72.367      85.539      51.806
  H       73.255      86.178      53.169

 6  7  8  9  10  11  12  13  14  15  16  26  30  31  32  33  35 0
 6-311+G(2d,p)
 ****
 37  38 0
 6-311+G(2d,p)
 ****
 1  2  3  4  5  17  18  19  20  21  22  23  24  25 0
 3-21G
 ****
 27  28  29  34  36  39  40  41  42  43  44  45  46 0
 3-21G
 ****


