%nproc=1
%NoSave
%Mem=1900MB
#P OB98/GEN NMR

erre ene a

0 1
  C       91.173     109.648     -90.386
  O       90.797     108.911     -89.239
  P       90.294     107.400     -89.390
  C       88.288     106.240     -90.505
  O       88.775     107.439     -89.906
  C       86.760     106.229     -90.497
  O       86.264     106.128     -89.145
  C       86.127     107.491     -91.071
  O       86.190     107.487     -92.485
  C       84.719     107.401     -90.497
  O       83.906     106.517     -91.289
  C       84.981     106.793     -89.110
  N       82.246     108.687     -85.243
  C       81.934     107.810     -86.220
  N       82.710     107.383     -87.241
  C       83.912     107.983     -87.201
  C       84.361     108.920     -86.285
  C       83.476     109.260     -85.246
  N       83.804     110.104     -84.210
  N       85.648     109.322     -86.595
  C       85.960     108.644     -87.683
  N       84.971     107.776     -88.047
  O       90.535     106.524     -88.204
  O       91.096     106.858     -90.665
  H       83.936     106.838     -92.208
  H       91.652     106.099     -90.402
  H       80.933     107.389     -86.174
  H       86.890     108.735     -88.229
  H       84.237     106.027     -88.853
  H       84.212     108.369     -90.467
  H       86.626     108.380     -90.663
  H       86.422     105.340     -91.051
  H       88.669     105.390     -89.934
  H       83.148     110.163     -83.444
  H       84.787     110.292     -84.033
  H       88.663     106.172     -91.532
  P       86.534     108.842     -93.269
  C       85.617     111.235     -93.343
  O       85.478     109.945     -92.781
  O       86.691     108.712     -94.749
  O       87.898     109.336     -92.587
  H       88.442     109.806     -93.246
  H       86.439     111.762     -92.850
  H       84.689     111.792     -93.179
  H       85.813     111.177     -94.418
  H       91.479     110.631     -90.094
  H       90.340     109.718     -91.054
  H       91.984     109.153     -90.878

 3  4  5  6  7  8  9  10  11  12  22  25  29  30  31  32 0
 6-311+G(2d,p)
 ****
 33  36  37 0
 6-311+G(2d,p)
 ****
 1  2  13  14  15  16  17  18  19  20  21  23  24  26 0
 3-21G
 ****
 27  28  34  35  38  39  40  41  42  43  44  45  46  47  48 0
 3-21G
 ****


