%nproc=1
%NoSave
%Mem=1900MB
#P OB98/GEN NMR

erre ene a

0 1
  C      771.473    -237.061      26.886
  O      770.206    -236.570      27.285
  P      768.865    -237.165      26.641
  C      768.352    -234.955      25.428
  O      768.554    -236.358      25.289
  C      768.511    -234.253      24.083
  O      769.858    -234.407      23.576
  C      767.616    -234.813      22.983
  O      766.263    -234.443      23.154
  C      768.286    -234.239      21.743
  O      767.891    -232.872      21.530
  C      769.781    -234.313      22.132
  N      770.471    -235.421      21.483
  C      771.326    -235.084      20.436
  O      771.411    -233.910      20.051
  N      772.064    -236.082      19.846
  C      771.860    -237.312      20.186
  N      772.667    -238.248      19.609
  C      770.852    -237.727      21.173
  C      770.207    -236.736      21.795
  O      767.710    -237.285      27.579
  O      769.311    -238.611      26.096
  H      768.669    -239.276      26.415
  H      768.349    -232.575      20.717
  H      770.674    -238.774      21.373
  H      769.460    -236.946      22.555
  H      770.287    -233.378      21.867
  H      768.029    -234.794      20.830
  H      767.689    -235.910      22.967
  H      768.318    -233.186      24.226
  H      773.362    -237.932      18.950
  H      769.088    -234.564      26.135
  H      772.820    -239.167      20.030
  H      767.352    -234.781      25.834
  P      765.186    -235.145      22.203
  C      764.759    -232.894      20.996
  O      765.078    -234.262      20.869
  O      763.786    -234.877      22.949
  O      765.414    -236.608      21.984
  H      763.213    -235.643      22.836
  H      765.064    -232.379      20.079
  H      765.269    -232.436      21.845
  H      763.676    -232.780      21.123
  H      772.241    -236.544      27.423
  H      771.603    -236.901      25.836
  H      771.532    -238.108      27.098

 3  4  5  6  7  8  9  10  11  12  13  24  27  28  29  30  32 0
 6-311+G(2d,p)
 ****
 34  35 0
 6-311+G(2d,p)
 ****
 1  2  14  15  16  17  18  19  20  21  22  23  25  26 0
 3-21G
 ****
 31  33  36  37  38  39  40  41  42  43  44  45  46 0
 3-21G
 ****


