%nproc=1
%NoSave
%Mem=1900MB
#P OB98/GEN NMR

erre ene a

0 1
  C      318.161      59.458      16.374
  O      317.572      60.040      15.225
  H      317.656      59.815      17.278
  H      318.055      58.370      16.319
  H      319.226      59.712      16.420
  P      317.588      61.640      15.135
  C      317.703      61.332      12.547
  O      317.077      61.983      13.651
  C      316.655      61.019      11.488
  O      315.812      59.933      11.924
  C      315.714      62.188      11.183
  O      316.273      63.124      10.280
  C      314.540      61.449      10.558
  O      314.859      61.083       9.206
  C      314.459      60.192      11.444
  N      309.579      60.201      13.004
  C      310.141      59.960      11.797
  N      311.452      59.957      11.469
  C      312.207      60.222      12.548
  C      311.776      60.491      13.833
  C      310.390      60.474      14.050
  N      309.807      60.758      15.273
  N      312.853      60.747      14.665
  C      313.913      60.628      13.894
  N      313.575      60.344      12.591
  O      319.149      62.005      15.065
  O      316.865      62.365      16.218
  H      314.903      61.911       8.688
  H      319.284      62.960      15.234
  H      309.448      59.739      10.987
  H      314.942      60.748      14.213
  H      314.132      59.307      10.895
  H      313.630      62.053      10.528
  H      315.376      62.675      12.105
  H      317.172      60.693      10.572
  H      318.169      60.402      12.895
  H      308.806      60.869      15.296
  H      310.398      61.102      16.019
  H      318.479      61.992      12.134
  P      316.229      64.675      10.686
  C      318.359      65.446       9.423
  O      316.941      65.487       9.505
  O      317.287      64.763      11.889
  O      314.873      65.171      11.094
  H      317.020      65.441      12.541
  H      318.685      66.032       8.589
  H      318.680      64.433       9.295
  H      318.780      65.842      10.324

 6  7  8  9  10  11  12  13  14  15  25  28  32  33  34  35 0
 6-311+G(2d,p)
 ****
 36  39  40 0
 6-311+G(2d,p)
 ****
 1  2  3  4  5  16  17  18  19  20  21  22  23  24 0
 3-21G
 ****
 26  27  29  30  31  37  38  41  42  43  44  45  46  47 0
 3-21G
 ****
 48 0
 3-21G
 ****


