%nproc=1
%NoSave
%Mem=1900MB
#P OB98/GEN NMR

erre ene a

0 1
  C     -233.722    -363.868     336.434
  O     -234.529    -364.435     335.392
  P     -235.318    -363.549     334.311
  C     -235.145    -365.501     332.630
  O     -235.989    -364.517     333.219
  C     -234.842    -366.645     333.605
  O     -236.061    -367.032     334.316
  C     -234.276    -367.915     332.940
  O     -233.284    -368.437     333.832
  C     -235.504    -368.813     332.882
  O     -235.199    -370.182     332.697
  C     -236.143    -368.475     334.229
  N     -237.519    -368.917     334.400
  C     -237.841    -369.583     335.595
  O     -236.987    -369.833     336.442
  N     -239.143    -369.972     335.793
  C     -240.048    -369.734     334.894
  N     -241.317    -370.137     335.165
  C     -239.748    -369.058     333.620
  C     -238.481    -368.682     333.446
  O     -234.489    -362.461     333.708
  O     -236.572    -362.932     335.095
  H     -236.752    -362.035     334.757
  H     -234.650    -370.263     331.896
  H     -240.527    -368.868     332.902
  H     -238.185    -368.149     332.541
  H     -235.522    -368.879     335.037
  H     -236.128    -368.495     332.035
  H     -233.810    -367.728     331.965
  H     -234.145    -366.270     334.364
  H     -241.480    -370.588     336.054
  H     -234.202    -365.024     332.348
  H     -242.095    -369.992     334.539
  H     -235.619    -365.887     331.726
  P     -231.745    -368.053     333.617
  C     -231.122    -368.625     336.081
  O     -230.886    -368.858     334.706
  O     -231.692    -366.559     334.196
  O     -231.245    -368.078     332.210
  H     -230.953    -366.077     333.774
  H     -231.157    -369.590     336.599
  H     -232.064    -368.103     336.263
  H     -230.301    -368.030     336.488
  H     -233.300    -364.653     337.026
  H     -234.329    -363.241     337.054
  H     -232.936    -363.287     336.000

 3  4  5  6  7  8  9  10  11  12  13  24  27  28  29  30  32 0
 6-311+G(2d,p)
 ****
 34  35 0
 6-311+G(2d,p)
 ****
 1  2  14  15  16  17  18  19  20  21  22  23  25  26 0
 3-21G
 ****
 31  33  36  37  38  39  40  41  42  43  44  45  46 0
 3-21G
 ****


