%nproc=1
%NoSave
%Mem=1900MB
#P OB98/GEN NMR

erre ene a

0 1
  C      576.709     283.811     721.647
  O      575.976     283.273     720.561
  H      577.408     283.054     722.002
  H      576.038     284.078     722.460
  H      577.272     284.695     721.328
  P      574.963     284.263     719.805
  C      576.221     284.295     717.525
  O      575.830     285.018     718.678
  C      576.733     285.262     716.451
  O      575.653     286.158     716.083
  C      577.907     286.125     716.939
  O      578.813     286.315     715.864
  C      577.244     287.446     717.292
  O      578.129     288.553     717.276
  C      576.140     287.516     716.234
  N      575.054     288.418     716.622
  C      575.199     289.768     716.313
  O      576.142     290.237     715.681
  N      574.211     290.594     716.770
  C      573.121     290.218     717.501
  O      572.271     290.999     717.891
  C      573.013     288.779     717.789
  C      573.977     287.965     717.352
  O      574.688     285.409     720.894
  O      573.702     283.639     719.310
  H      573.928     285.185     721.444
  H      577.608     289.353     717.525
  H      574.301     291.571     716.548
  H      572.177     288.445     718.384
  H      573.947     286.896     717.567
  H      576.556     287.822     715.275
  H      576.810     287.391     718.299
  H      578.434     285.694     717.791
  H      576.997     284.692     715.569
  H      575.345     283.745     717.138
  H      577.002     283.580     717.799
  P      580.084     285.326     715.758
  C      579.006     283.811     713.909
  O      579.490     283.920     715.247
  O      580.387     285.082     717.305
  O      581.199     285.889     714.946
  H      579.600     285.033     717.868
  H      578.650     282.816     713.738
  H      579.799     284.029     713.224
  H      578.206     284.506     713.761

 6  7  8  9  10  11  12  13  14  15  16  27  31  32  33  34  35 0
 6-311+G(2d,p)
 ****
 36  37 0
 6-311+G(2d,p)
 ****
 1  2  3  4  5  17  18  19  20  21  22  23  24  25 0
 3-21G
 ****
 26  28  29  30  38  39  40  41  42  43  44  45 0
 3-21G
 ****


