%nproc=1
%NoSave
%Mem=1900MB
#P OB98/GEN NMR

erre ene a

0 1
  C      697.100    -124.571     129.453
  O      696.134    -125.499     129.002
  H      696.665    -123.569     129.434
  H      697.972    -124.590     128.792
  H      697.408    -124.803     130.479
  P      696.473    -127.056     129.167
  C      696.453    -128.733     131.151
  O      696.372    -127.381     130.737
  C      696.353    -128.820     132.676
  O      697.562    -128.247     133.254
  C      695.155    -128.065     133.267
  O      694.664    -128.804     134.388
  C      695.777    -126.770     133.758
  O      695.028    -126.126     134.781
  C      697.147    -127.264     134.226
  N      698.126    -126.186     134.335
  C      698.265    -125.572     135.577
  O      697.687    -125.926     136.603
  N      699.120    -124.499     135.615
  C      699.808    -123.981     134.554
  O      700.541    -123.003     134.648
  C      699.613    -124.666     133.269
  C      698.796    -125.718     133.220
  O      698.047    -127.115     128.877
  O      695.692    -127.978     128.288
  H      698.213    -127.252     127.927
  H      695.562    -125.370     135.103
  H      699.232    -124.041     136.503
  H      700.137    -124.276     132.402
  H      698.613    -126.235     132.281
  H      697.054    -127.782     135.193
  H      695.880    -126.066     132.919
  H      694.341    -127.889     132.557
  H      696.328    -129.880     132.968
  H      697.413    -129.156     130.835
  H      695.644    -129.307     130.683
  P      693.934    -130.206     134.090
  C      695.192    -132.109     132.802
  O      695.112    -131.278     133.955
  O      693.427    -129.974     132.593
  O      692.866    -130.527     135.082
  H      694.044    -129.439     132.059
  H      696.038    -132.758     132.888
  H      695.298    -131.499     131.929
  H      694.300    -132.695     132.722

 6  7  8  9  10  11  12  13  14  15  16  27  31  32  33  34  35 0
 6-311+G(2d,p)
 ****
 36  37 0
 6-311+G(2d,p)
 ****
 1  2  3  4  5  17  18  19  20  21  22  23  24  25 0
 3-21G
 ****
 26  28  29  30  38  39  40  41  42  43  44  45 0
 3-21G
 ****


