%nproc=1
%NoSave
%Mem=1900MB
#P OB98/GEN NMR

erre ene a

0 1
  C      -67.206     223.734    -321.975
  O      -66.007     224.532    -322.091
  P      -64.650     224.016    -321.396
  C      -63.134     222.266    -322.607
  O      -63.566     223.618    -322.513
  C      -62.299     222.033    -323.875
  O      -62.957     222.647    -325.028
  C      -60.872     222.607    -323.814
  O      -60.036     221.735    -324.599
  C      -61.028     223.949    -324.515
  O      -59.799     224.482    -324.984
  C      -62.010     223.559    -325.633
  N      -62.703     224.693    -326.244
  C      -62.115     225.286    -327.365
  O      -61.027     224.965    -327.830
  N      -62.821     226.319    -327.933
  C      -64.010     226.834    -327.470
  O      -64.576     227.777    -328.014
  C      -64.559     226.187    -326.279
  C      -63.901     225.168    -325.729
  O      -65.097     222.579    -320.828
  O      -64.128     224.869    -320.282
  H      -59.322     223.754    -325.428
  H      -64.778     222.479    -319.908
  H      -62.421     226.752    -328.747
  H      -65.508     226.559    -325.889
  H      -64.300     224.666    -324.847
  H      -61.480     222.997    -326.402
  H      -61.463     224.672    -323.819
  H      -60.484     222.694    -322.795
  H      -62.271     220.953    -324.074
  H      -64.011     221.604    -322.634
  H      -62.543     222.018    -321.717
  P      -59.181     220.606    -323.823
  C      -60.682     218.604    -323.026
  O      -59.931     219.210    -324.062
  O      -59.555     220.960    -322.294
  O      -57.716     220.643    -324.096
  H      -60.508     221.125    -322.172
  H      -61.266     219.352    -322.471
  H      -60.014     218.080    -322.335
  H      -61.371     217.877    -323.462
  H      -68.008     224.219    -322.491
  H      -67.462     223.622    -320.942
  H      -67.036     222.770    -322.406

 3  4  5  6  7  8  9  10  11  12  13  23  28  29  30  31  32 0
 6-311+G(2d,p)
 ****
 33  34 0
 6-311+G(2d,p)
 ****
 1  2  14  15  16  17  18  19  20  21  22  24  25  26 0
 3-21G
 ****
 27  35  36  37  38  39  40  41  42  43  44  45 0
 3-21G
 ****


