%nproc=1
%NoSave
%Mem=1900MB
#P OB98/GEN NMR

erre ene a

0 1
  C       37.214     -69.834     -27.040
  O       36.139     -70.076     -26.123
  P       34.671     -70.531     -26.586
  C       33.644     -72.574     -25.395
  O       33.896     -71.178     -25.337
  C       34.892     -73.394     -25.050
  O       35.418     -72.985     -23.750
  C       34.657     -74.914     -24.990
  O       35.822     -75.530     -25.549
  C       34.561     -75.159     -23.492
  O       34.758     -76.511     -23.122
  C       35.647     -74.196     -23.001
  N       35.642     -73.925     -21.567
  C       35.598     -75.022     -20.697
  O       35.506     -76.172     -21.120
  N       35.638     -74.786     -19.343
  C       35.707     -73.573     -18.895
  N       35.753     -73.412     -17.545
  C       35.737     -72.391     -19.772
  C       35.704     -72.638     -21.081
  O       34.670     -71.405     -27.799
  O       33.873     -69.173     -26.871
  H       33.268     -69.310     -27.625
  H       35.580     -76.821     -23.544
  H       35.802     -71.396     -19.357
  H       35.751     -71.822     -21.794
  H       36.630     -74.576     -23.298
  H       33.565     -74.861     -23.151
  H       33.779     -75.245     -25.552
  H       35.667     -73.158     -25.789
  H       35.742     -74.249     -16.974
  H       33.325     -72.828     -26.410
  H       35.817     -72.515     -17.089
  H       32.825     -72.818     -24.708
  P       35.734     -76.231     -26.989
  C       38.005     -75.742     -28.168
  O       37.222     -76.646     -27.417
  O       35.457     -74.974     -27.949
  O       34.663     -77.257     -27.162
  H       34.997     -75.281     -28.752
  H       39.014     -75.719     -27.747
  H       37.598     -74.728     -28.153
  H       38.060     -76.090     -29.202
  H       38.088     -69.544     -26.496
  H       36.938     -69.051     -27.715
  H       37.418     -70.727     -27.593

 3  4  5  6  7  8  9  10  11  12  13  24  27  28  29  30  32 0
 6-311+G(2d,p)
 ****
 34  35 0
 6-311+G(2d,p)
 ****
 1  2  14  15  16  17  18  19  20  21  22  23  25  26 0
 3-21G
 ****
 31  33  36  37  38  39  40  41  42  43  44  45  46 0
 3-21G
 ****


