%nproc=1
%NoSave
%Mem=1900MB
#P OB98/GEN NMR

erre ene a

0 1
  C      -76.433    -346.716    -435.049
  O      -76.128    -346.722    -436.452
  P      -75.478    -348.083    -437.025
  C      -73.150    -347.214    -437.806
  O      -73.883    -347.982    -436.854
  C      -71.644    -347.360    -437.567
  O      -71.168    -346.548    -436.485
  C      -71.225    -348.791    -437.231
  O      -71.153    -349.561    -438.417
  C      -69.866    -348.570    -436.580
  O      -68.822    -348.448    -437.575
  C      -70.058    -347.225    -435.852
  N      -67.958    -347.166    -431.223
  C      -67.361    -347.176    -432.469
  N      -66.014    -347.119    -432.492
  N      -68.020    -347.212    -433.600
  C      -69.364    -347.258    -433.436
  C      -70.078    -347.231    -432.248
  C      -69.329    -347.195    -431.011
  O      -69.813    -347.165    -429.884
  N      -71.438    -347.230    -432.484
  C      -71.532    -347.367    -433.793
  N      -70.310    -347.333    -434.422
  O      -75.705    -347.960    -438.604
  O      -76.100    -349.323    -436.468
  H      -68.740    -349.296    -438.053
  H      -76.372    -348.612    -438.897
  H      -67.400    -347.154    -430.391
  H      -72.461    -347.492    -434.336
  H      -69.173    -346.581    -435.953
  H      -69.585    -349.396    -435.934
  H      -65.429    -347.084    -431.663
  H      -71.921    -349.225    -436.505
  H      -65.546    -347.109    -433.400
  H      -71.126    -347.033    -438.496
  H      -73.437    -346.158    -437.730
  H      -73.433    -347.538    -438.810
  P      -72.429    -350.460    -438.809
  C      -71.403    -352.713    -438.032
  O      -72.417    -351.747    -437.848
  O      -72.043    -351.040    -440.249
  O      -73.716    -349.710    -438.852
  H      -72.805    -350.974    -440.843
  H      -71.206    -353.198    -437.063
  H      -70.480    -352.274    -438.402
  H      -71.743    -353.476    -438.745
  H      -76.857    -345.771    -434.780
  H      -75.536    -346.877    -434.488
  H      -77.134    -347.495    -434.833

 3  4  5  6  7  8  9  10  11  12  23  26  30  31 0
 6-311+G(2d,p)
 ****
 33  35  36  37  38 0
 6-311+G(2d,p)
 ****
 1  2  13  14  15  16  17  18  19  20  21  22  24  25 0
 3-21G
 ****
 27  28  29  32  34  39  40  41  42  43  44  45  46  47  48  49 0
 3-21G
 ****


