%nproc=1
%NoSave
%Mem=1900MB
#P OB98/GEN NMR

erre ene a

0 1
  C      -23.748     206.122    -283.103
  O      -25.116     206.055    -283.452
  P      -26.207     205.618    -282.361
  C      -26.779     203.681    -283.951
  O      -26.564     204.074    -282.599
  C      -25.925     202.461    -284.294
  O      -24.589     202.602    -283.766
  C      -26.444     201.154    -283.706
  O      -27.601     200.694    -284.379
  C      -25.219     200.265    -283.849
  O      -25.108     199.753    -285.186
  C      -24.075     201.263    -283.558
  N      -23.526     201.103    -282.221
  C      -22.675     200.007    -282.030
  O      -22.488     199.198    -282.939
  N      -22.065     199.858    -280.808
  C      -22.371     200.656    -279.834
  N      -21.690     200.494    -278.666
  C      -23.386     201.721    -279.949
  C      -23.900     201.901    -281.164
  O      -27.387     206.525    -282.248
  O      -25.385     205.583    -280.987
  H      -25.877     206.094    -280.312
  H      -24.333     199.156    -285.188
  H      -23.656     202.314    -279.085
  H      -24.638     202.677    -281.350
  H      -23.269     201.136    -284.291
  H      -25.248     199.404    -283.174
  H      -26.673     201.296    -282.643
  H      -25.859     202.390    -285.387
  H      -20.989     199.764    -278.629
  H      -26.510     204.515    -284.605
  H      -21.612     201.237    -277.975
  H      -27.841     203.463    -284.099
  P      -28.996     200.816    -283.594
  C      -29.800     198.431    -284.199
  O      -29.440     199.336    -283.176
  O      -30.034     201.214    -284.746
  O      -29.002     201.818    -282.485
  H      -30.700     201.836    -284.388
  H      -29.733     197.411    -283.805
  H      -29.139     198.517    -285.068
  H      -30.835     198.622    -284.510
  H      -23.177     206.429    -283.954
  H      -23.415     205.158    -282.779
  H      -23.616     206.829    -282.311

 3  4  5  6  7  8  9  10  11  12  13  24  27  28  29  30  32 0
 6-311+G(2d,p)
 ****
 34  35 0
 6-311+G(2d,p)
 ****
 1  2  14  15  16  17  18  19  20  21  22  23  25  26 0
 3-21G
 ****
 31  33  36  37  38  39  40  41  42  43  44  45  46 0
 3-21G
 ****


