%nproc=1
%NoSave
%Mem=1900MB
#P OB98/GEN NMR

erre ene a

0 1
  C      119.453    -186.476      52.837
  O      118.880    -187.686      52.328
  P      118.942    -187.919      50.744
  C      118.753    -190.075      49.286
  O      118.281    -189.344      50.411
  C      118.123    -191.469      49.258
  O      118.634    -192.288      50.329
  C      116.617    -191.453      49.451
  O      115.966    -191.077      48.257
  C      116.338    -192.890      49.885
  O      116.072    -193.740      48.755
  C      117.647    -193.304      50.594
  N      117.470    -193.517      52.022
  C      116.730    -194.643      52.384
  O      116.252    -195.382      51.520
  N      116.530    -194.897      53.719
  C      117.005    -194.072      54.610
  N      116.771    -194.373      55.917
  C      117.769    -192.856      54.263
  C      117.959    -192.642      52.967
  O      120.499    -188.165      50.468
  O      118.406    -186.777      49.943
  H      115.124    -193.630      48.562
  H      120.742    -187.820      49.589
  H      118.134    -192.195      55.038
  H      118.506    -191.767      52.620
  H      118.033    -194.236      50.160
  H      115.450    -192.947      50.532
  H      116.346    -190.763      50.268
  H      118.374    -191.949      48.301
  H      116.245    -195.212      56.116
  H      119.842    -190.156      49.317
  H      117.088    -193.800      56.689
  H      118.504    -189.512      48.372
  P      115.054    -189.768      48.280
  C      114.544    -188.171      46.328
  O      114.620    -189.522      46.753
  O      116.135    -188.603      48.504
  O      113.956    -189.709      49.297
  H      115.688    -187.744      48.637
  H      114.447    -188.156      45.231
  H      115.447    -187.637      46.610
  H      113.669    -187.689      46.766
  H      119.343    -186.450      53.901
  H      118.951    -185.635      52.406
  H      120.492    -186.440      52.584

 3  4  5  6  7  8  9  10  11  12  13  21  23  27  28  29  30  32 0
 6-311+G(2d,p)
 ****
 34  35 0
 6-311+G(2d,p)
 ****
 1  2  14  15  16  17  18  19  20  22  24  25  26 0
 3-21G
 ****
 31  33  36  37  38  39  40  41  42  43  44  45  46 0
 3-21G
 ****


