%nproc=1
%NoSave
%Mem=1900MB
#P OB98/GEN NMR

erre ene a

0 1
  C     1075.445     750.113     160.823
  O     1075.474     749.137     161.847
  P     1074.501     749.274     163.113
  C     1072.587     747.918     162.051
  O     1072.993     749.172     162.604
  C     1071.789     747.117     163.077
  O     1070.614     747.852     163.494
  C     1071.267     745.801     162.534
  O     1072.287     744.822     162.421
  C     1070.191     745.459     163.606
  O     1070.802     744.898     164.769
  C     1069.630     746.861     163.898
  N     1068.334     747.092     163.255
  C     1067.204     746.739     164.038
  O     1067.333     746.205     165.126
  N     1065.968     747.009     163.504
  C     1065.850     747.472     162.291
  N     1064.605     747.762     161.852
  C     1067.006     747.685     161.416
  C     1068.209     747.511     161.970
  O     1074.788     750.433     164.010
  O     1074.699     747.875     163.892
  H     1074.890     748.081     164.839
  H     1070.076     744.546     165.319
  H     1066.861     748.009     160.388
  H     1069.127     747.679     161.404
  H     1069.512     746.992     164.986
  H     1069.459     744.744     163.225
  H     1070.777     745.941     161.581
  H     1072.412     746.951     163.948
  H     1063.829     747.633     162.508
  H     1073.481     747.352     161.776
  H     1064.429     748.422     161.084
  H     1071.985     748.097     161.145
  P     1072.932     744.636     160.960
  C     1075.303     745.074     161.914
  O     1074.336     745.420     160.933
  O     1071.998     745.512     160.027
  O     1073.010     743.223     160.501
  H     1071.894     745.060     159.150
  H     1076.288     745.422     161.540
  H     1075.362     743.999     162.066
  H     1075.081     745.589     162.861
  H     1076.157     749.857     160.066
  H     1075.690     751.070     161.235
  H     1074.466     750.150     160.393

 3  4  5  6  7  8  9  10  11  12  13  24  27  28  29  30  32 0
 6-311+G(2d,p)
 ****
 34  35 0
 6-311+G(2d,p)
 ****
 1  2  14  15  16  17  18  19  20  21  22  23  25  26 0
 3-21G
 ****
 31  33  36  37  38  39  40  41  42  43  44  45  46 0
 3-21G
 ****


