%nproc=1
%NoSave
%Mem=1900MB
#P OB98/GEN NMR

erre ene a

0 1
  C      609.819    -226.764    -590.073
  O      608.564    -227.219    -589.563
  P      607.547    -227.973    -590.544
  C      606.032    -226.205    -591.650
  O      607.191    -227.011    -591.782
  C      606.116    -224.963    -592.554
  O      606.064    -225.373    -593.948
  C      604.970    -223.967    -592.315
  O      605.434    -222.627    -592.115
  C      604.057    -224.180    -593.513
  O      603.243    -223.052    -593.789
  C      605.032    -224.622    -594.614
  N      604.360    -225.388    -595.664
  C      603.993    -224.686    -596.799
  O      604.121    -223.477    -596.927
  N      603.384    -225.431    -597.784
  C      603.058    -226.752    -597.705
  O      602.476    -227.363    -598.594
  C      603.421    -227.426    -596.448
  C      604.049    -226.721    -595.501
  O      606.368    -228.610    -589.890
  O      608.479    -229.086    -591.234
  H      602.515    -223.331    -594.402
  H      607.950    -229.908    -591.328
  H      603.123    -224.939    -598.632
  H      603.157    -228.463    -596.333
  H      604.313    -227.184    -594.553
  H      605.497    -223.749    -595.091
  H      603.384    -225.012    -593.288
  H      604.422    -224.200    -591.396
  H      607.088    -224.496    -592.370
  H      605.922    -225.880    -590.613
  H      605.139    -226.810    -591.877
  P      606.139    -222.108    -590.771
  C      604.242    -222.081    -589.005
  O      605.376    -222.756    -589.519
  O      606.362    -220.641    -590.680
  O      607.546    -222.880    -590.789
  H      608.249    -222.271    -590.473
  H      604.082    -222.426    -587.973
  H      603.367    -222.347    -589.600
  H      604.388    -220.997    -588.994
  H      610.370    -226.286    -589.290
  H      609.650    -226.067    -590.867
  H      610.377    -227.598    -590.444

 3  4  5  6  7  8  9  10  11  12  13  23  28  29  30  31  32 0
 6-311+G(2d,p)
 ****
 33  34 0
 6-311+G(2d,p)
 ****
 1  2  14  15  16  17  18  19  20  21  22  24  25  26  27 0
 3-21G
 ****
 35  36  37  38  39  40  41  42  43  44  45 0
 3-21G
 ****


