%nproc=1
%NoSave
%Mem=1900MB
#P OB98/GEN NMR

erre ene a

0 1
  C      103.530     -45.928      33.413
  O      102.389     -46.515      34.006
  H      104.252     -46.717      33.189
  H      103.988     -45.218      34.107
  H      103.259     -45.422      32.483
  P      101.125     -45.550      34.247
  C      101.992     -44.337      36.405
  O      101.705     -44.271      35.020
  C      101.368     -43.148      37.138
  O      101.297     -43.458      38.551
  C      102.153     -41.846      36.984
  O      101.226     -40.763      36.896
  C      102.942     -41.751      38.278
  O      103.308     -40.405      38.581
  C      101.980     -42.414      39.274
  N      102.673     -42.943      40.447
  C      102.601     -42.181      41.617
  O      101.993     -41.110      41.622
  N      103.251     -42.626      42.740
  C      103.973     -43.702      42.681
  N      104.611     -44.079      43.822
  C      104.121     -44.508      41.454
  C      103.444     -44.082      40.390
  O      100.320     -46.348      35.376
  O      100.339     -45.255      33.015
  H      103.884     -40.420      39.378
  H      100.890     -46.734      36.062
  H      104.747     -45.390      41.451
  H      103.490     -44.618      39.449
  H      101.223     -41.695      39.615
  H      103.865     -42.338      38.197
  H      102.810     -41.835      36.114
  H      100.335     -43.031      36.790
  H      104.499     -43.488      44.637
  H      103.074     -44.337      36.569
  H      105.238     -44.868      43.878
  H      101.586     -45.276      36.792
  P      101.166     -39.888      35.556
  C      102.540     -37.928      36.514
  O      102.448     -38.923      35.506
  O       99.862     -39.223      35.271
  O      101.510     -40.966      34.413
  H      100.950     -40.769      33.637
  H      103.433     -37.356      36.370
  H      102.568     -38.396      37.476
  H      101.689     -37.282      36.456

 6  7  8  9  10  11  12  13  14  15  16  26  30  31  32  33  35 0
 6-311+G(2d,p)
 ****
 37  38 0
 6-311+G(2d,p)
 ****
 1  2  3  4  5  17  18  19  20  21  22  23  24  25 0
 3-21G
 ****
 27  28  29  34  36  39  40  41  42  43  44  45  46 0
 3-21G
 ****


