%nproc=1
%NoSave
%Mem=1900MB
#P OB98/GEN NMR

erre ene a

0 1
  C      446.055     286.183    1112.477
  O      445.742     285.354    1111.382
  H      446.691     285.633    1113.173
  H      445.130     286.462    1112.997
  H      446.582     287.091    1112.166
  P      445.066     286.007    1110.081
  C      442.681     285.512    1110.922
  O      443.611     286.515    1110.530
  C      441.270     286.109    1111.111
  O      441.276     286.914    1112.334
  C      440.827     287.025    1109.948
  O      439.398     286.919    1109.851
  C      441.222     288.405    1110.471
  O      440.553     289.433    1109.761
  C      440.877     288.261    1111.958
  N      441.524     289.266    1112.786
  C      440.766     290.381    1113.112
  O      439.593     290.557    1112.725
  N      441.366     291.326    1113.885
  C      442.679     291.296    1114.293
  O      443.188     292.193    1114.949
  C      443.455     290.120    1113.874
  C      442.845     289.166    1113.149
  O      445.070     285.164    1108.850
  O      445.860     287.387    1109.862
  H      440.746     289.339    1108.802
  H      445.875     287.619    1108.923
  H      440.826     292.136    1114.137
  H      444.487     290.071    1114.182
  H      443.399     288.281    1112.841
  H      439.789     288.336    1112.110
  H      442.294     288.561    1110.348
  H      441.296     286.778    1108.995
  H      440.555     285.283    1111.268
  H      443.016     285.067    1111.866
  H      442.639     284.727    1110.159
  P      438.679     285.744    1109.031
  C      438.899     286.717    1106.645
  O      439.309     285.696    1107.540
  O      437.190     285.803    1109.040
  O      439.213     284.388    1109.701
  H      438.547     283.692    1109.593
  H      439.381     286.577    1105.700
  H      439.169     287.672    1107.045
  H      437.838     286.672    1106.515

 6  7  8  9  10  11  12  13  14  15  16  26  31  32  33  34  35 0
 6-311+G(2d,p)
 ****
 36  37 0
 6-311+G(2d,p)
 ****
 1  2  3  4  5  17  18  19  20  21  22  23  24  25 0
 3-21G
 ****
 27  28  29  30  38  39  40  41  42  43  44  45 0
 3-21G
 ****


