%nproc=1
%NoSave
%Mem=1900MB
#P OB98/GEN NMR

erre ene a

0 1
  C      227.352    -210.135     -20.187
  O      226.113    -209.531     -20.498
  H      227.781    -210.551     -21.104
  H      227.205    -210.946     -19.467
  H      228.047    -209.396     -19.778
  P      225.368    -208.752     -19.311
  C      224.640    -210.883     -17.997
  O      225.443    -209.714     -18.024
  C      224.156    -211.150     -16.572
  O      223.404    -212.393     -16.563
  C      225.299    -211.298     -15.558
  O      224.899    -210.722     -14.314
  C      225.438    -212.806     -15.408
  O      226.037    -213.208     -14.184
  C      223.974    -213.247     -15.550
  N      223.847    -214.652     -15.923
  C      223.537    -215.557     -14.914
  O      223.291    -215.252     -13.747
  N      223.517    -216.876     -15.288
  C      223.787    -217.365     -16.532
  O      223.775    -218.563     -16.803
  C      224.121    -216.361     -17.551
  C      224.134    -215.071     -17.206
  O      223.821    -208.832     -19.731
  O      225.820    -207.355     -19.064
  H      223.576    -208.057     -20.275
  H      225.882    -214.168     -14.075
  H      223.291    -217.549     -14.569
  H      224.352    -216.716     -18.549
  H      224.385    -214.309     -17.933
  H      223.431    -213.058     -14.617
  H      226.041    -213.210     -16.229
  H      226.229    -210.838     -15.899
  H      223.462    -210.348     -16.272
  H      225.237    -211.734     -18.341
  H      223.783    -210.751     -18.671
  P      225.932    -209.720     -13.599
  C      226.642    -211.346     -11.677
  O      227.010    -210.652     -12.859
  O      225.035    -209.130     -12.415
  O      226.498    -208.701     -14.538
  H      224.428    -209.784     -12.026
  H      227.477    -211.914     -11.322
  H      225.827    -212.005     -11.890
  H      226.345    -210.642     -10.928

 6  7  8  9  10  11  12  13  14  15  16  27  31  32  33  34  35 0
 6-311+G(2d,p)
 ****
 36  37 0
 6-311+G(2d,p)
 ****
 1  2  3  4  5  17  18  19  20  21  22  23  24  25 0
 3-21G
 ****
 26  28  29  30  38  39  40  41  42  43  44  45 0
 3-21G
 ****


