%nproc=1
%NoSave
%Mem=1900MB
#P OB98/GEN NMR

erre ene a

0 1
  C     -407.589    -778.730    -583.781
  O     -406.736    -777.779    -584.413
  P     -405.225    -777.669    -583.898
  C     -404.361    -776.354    -586.007
  O     -404.613    -776.375    -584.593
  C     -404.244    -774.904    -586.496
  O     -405.546    -774.398    -586.869
  C     -403.700    -773.933    -585.485
  O     -402.295    -774.031    -585.343
  C     -404.182    -772.593    -586.074
  O     -403.302    -772.167    -587.124
  C     -405.549    -772.971    -586.638
  N     -406.679    -772.592    -585.774
  C     -406.875    -771.232    -585.578
  O     -406.171    -770.370    -586.101
  N     -407.905    -770.879    -584.738
  C     -408.709    -771.764    -584.038
  O     -409.590    -771.400    -583.271
  C     -408.421    -773.186    -584.245
  C     -407.428    -773.535    -585.088
  O     -404.571    -778.904    -584.651
  O     -405.132    -777.707    -582.403
  H     -405.027    -779.112    -585.482
  H     -403.588    -771.262    -587.380
  H     -408.089    -769.902    -584.606
  H     -409.023    -773.902    -583.707
  H     -407.209    -774.584    -585.256
  H     -405.709    -772.511    -587.608
  H     -404.206    -771.789    -585.320
  H     -404.179    -774.080    -584.509
  H     -403.626    -774.900    -587.419
  H     -405.175    -776.845    -586.519
  H     -403.423    -776.900    -586.197
  P     -401.620    -773.154    -584.158
  C     -399.666    -774.851    -583.768
  O     -400.068    -773.547    -584.135
  O     -402.236    -773.853    -582.854
  O     -401.899    -771.681    -584.270
  H     -402.233    -774.815    -582.913
  H     -398.658    -775.033    -584.143
  H     -400.346    -775.605    -584.206
  H     -399.662    -774.933    -582.677
  H     -408.561    -778.690    -584.227
  H     -407.666    -778.503    -582.738
  H     -407.181    -779.712    -583.903

 3  4  5  6  7  8  9  10  11  12  13  24  28  29  30  31  32 0
 6-311+G(2d,p)
 ****
 33  34 0
 6-311+G(2d,p)
 ****
 1  2  14  15  16  17  18  19  20  21  22  23  25  26  27 0
 3-21G
 ****
 35  36  37  38  39  40  41  42  43  44  45 0
 3-21G
 ****


