%nproc=1
%NoSave
%Mem=1900MB
#P OB98/GEN NMR

erre ene a

0 1
  C     -323.134     631.467     -24.946
  O     -323.375     631.103     -26.298
  P     -322.819     629.680     -26.792
  C     -324.955     629.388     -28.238
  O     -323.534     629.403     -28.203
  C     -325.452     629.318     -29.676
  O     -325.040     628.079     -30.288
  C     -326.967     629.361     -29.823
  O     -327.477     630.682     -29.772
  C     -327.138     628.785     -31.223
  O     -326.855     629.796     -32.204
  C     -326.055     627.703     -31.254
  N     -329.308     624.021     -32.671
  C     -329.086     625.257     -33.158
  N     -328.211     626.187     -32.717
  C     -327.546     625.738     -31.637
  C     -327.697     624.514     -31.010
  C     -328.614     623.621     -31.577
  N     -328.819     622.348     -31.100
  N     -326.839     624.417     -29.933
  C     -326.181     625.558     -29.913
  N     -326.566     626.386     -30.931
  O     -323.537     628.645     -25.803
  O     -321.333     629.539     -26.770
  H     -327.366     630.592     -31.952
  H     -323.020     627.816     -25.755
  H     -329.683     625.545     -34.015
  H     -325.420     625.819     -29.193
  H     -325.562     627.638     -32.234
  H     -328.150     628.427     -31.414
  H     -327.458     628.702     -29.097
  H     -324.992     630.144     -30.241
  H     -325.335     630.302     -27.772
  H     -329.358     621.710     -31.665
  H     -328.166     621.982     -30.415
  H     -325.316     628.529     -27.665
  P     -328.572     630.992     -28.636
  C     -327.499     633.326     -28.247
  O     -328.667     632.588     -28.558
  O     -327.813     630.583     -27.284
  O     -329.857     630.257     -28.805
  H     -328.457     630.340     -26.592
  H     -327.659     634.366     -28.542
  H     -326.633     632.943     -28.787
  H     -327.312     633.288     -27.167
  H     -323.556     632.432     -24.756
  H     -322.079     631.498     -24.767
  H     -323.585     630.746     -24.297

 3  4  5  6  7  8  9  10  11  12  22  25  29  30  31  32 0
 6-311+G(2d,p)
 ****
 33  36  37 0
 6-311+G(2d,p)
 ****
 1  2  13  14  15  16  17  18  19  20  21  23  24  26 0
 3-21G
 ****
 27  28  34  35  38  39  40  41  42  43  44  45  46  47  48 0
 3-21G
 ****


