%nproc=1
%NoSave
%Mem=1900MB
#P OB98/GEN NMR

erre ene a

0 1
  C      171.066     128.379     315.088
  O      170.265     128.371     316.250
  H      170.421     128.248     314.214
  H      171.791     127.559     315.119
  H      171.592     129.335     315.000
  P      171.041     128.440     317.656
  C      170.715     131.026     317.781
  O      171.622     129.938     317.691
  C      171.085     132.097     316.763
  O      170.828     131.635     315.415
  C      170.294     133.397     316.894
  O      170.743     134.223     317.955
  C      170.579     134.018     315.537
  O      171.923     134.531     315.513
  C      170.432     132.785     314.619
  N      169.070     132.611     314.105
  C      168.838     133.034     312.790
  O      169.744     133.523     312.116
  N      167.566     132.919     312.275
  C      166.620     132.412     312.998
  N      165.382     132.329     312.435
  C      166.821     131.944     314.383
  C      168.055     132.071     314.866
  O      172.353     127.559     317.399
  O      170.253     128.043     318.858
  H      172.507     133.791     315.759
  H      172.977     127.653     318.161
  H      165.996     131.539     314.952
  H      168.281     131.746     315.876
  H      171.121     132.847     313.767
  H      169.917     134.847     315.294
  H      169.218     133.207     316.978
  H      172.165     132.281     316.844
  H      165.261     132.713     311.507
  H      170.770     131.433     318.796
  H      164.552     132.090     312.962
  H      169.695     130.679     317.589
  P      170.107     133.971     319.409
  C      172.361     134.294     320.674
  O      171.288     133.419     320.346
  O      169.189     132.685     319.182
  O      169.334     135.121     319.968
  H      168.388     132.721     319.744
  H      173.061     133.781     321.300
  H      171.979     135.149     321.192
  H      172.850     134.610     319.777

 6  7  8  9  10  11  12  13  14  15  16  26  30  31  32  33  35 0
 6-311+G(2d,p)
 ****
 37  38 0
 6-311+G(2d,p)
 ****
 1  2  3  4  5  17  18  19  20  21  22  23  24  25 0
 3-21G
 ****
 27  28  29  34  36  39  40  41  42  43  44  45  46 0
 3-21G
 ****


