%nproc=1
%NoSave
%Mem=1900MB
#P OB98/GEN NMR

erre ene a

0 1
  C      138.972     105.113       2.584
  O      139.953     106.043       3.047
  P      139.776     106.779       4.463
  C      139.327     109.136       5.355
  O      139.290     108.291       4.210
  C      138.234     110.211       5.355
  O      138.521     111.245       4.383
  C      136.824     109.694       5.058
  O      135.935     110.515       5.822
  C      136.682     109.978       3.575
  O      135.326     109.983       3.143
  C      137.418     111.319       3.463
  N      137.864     111.596       2.102
  C      136.872     111.825       1.146
  O      135.682     111.733       1.450
  N      137.248     112.106      -0.146
  C      138.503     112.060      -0.469
  N      138.814     112.322      -1.769
  C      139.579     111.737       0.488
  C      139.190     111.530       1.744
  O      140.942     106.649       5.386
  O      138.479     106.079       5.097
  H      134.921     109.125       3.392
  H      138.555     106.083       6.070
  H      140.608     111.687       0.166
  H      139.904     111.291       2.524
  H      136.770     112.144       3.789
  H      137.209     109.208       3.000
  H      136.685     108.638       5.303
  H      138.251     110.692       6.342
  H      138.045     112.513      -2.401
  H      140.307     109.622       5.395
  H      139.740     112.202      -2.152
  H      139.240     108.517       6.256
  P      135.215     109.985       7.147
  C      132.910     109.050       7.746
  O      133.680     109.732       6.773
  O      135.428     110.832       8.361
  O      135.792     108.505       7.367
  H      135.624     108.225       8.285
  H      131.853     109.126       7.481
  H      133.058     109.492       8.739
  H      133.198     107.996       7.772
  H      139.265     104.732       1.628
  H      138.026     105.606       2.496
  H      138.890     104.305       3.281

 3  4  5  6  7  8  9  10  11  12  13  23  27  28  29  30  32 0
 6-311+G(2d,p)
 ****
 34  35 0
 6-311+G(2d,p)
 ****
 1  2  14  15  16  17  18  19  20  21  22  24  25  26 0
 3-21G
 ****
 31  33  36  37  38  39  40  41  42  43  44  45  46 0
 3-21G
 ****


