%nproc=1
%NoSave
%Mem=1900MB
#P OB98/GEN NMR

erre ene a

0 1
  C      229.085    -188.641     336.739
  O      228.666    -189.078     338.037
  P      228.418    -190.643     338.290
  C      225.896    -190.815     337.780
  O      227.211    -191.141     337.353
  C      224.902    -191.930     337.409
  O      223.579    -191.600     337.922
  C      224.780    -192.140     335.890
  O      224.935    -193.502     335.495
  C      223.444    -191.496     335.550
  O      222.874    -191.999     334.350
  C      222.635    -191.698     336.841
  N      221.550    -190.708     336.967
  C      220.299    -191.206     337.292
  O      220.053    -192.407     337.406
  N      219.303    -190.269     337.441
  C      219.425    -188.935     337.219
  O      218.494    -188.138     337.309
  C      220.764    -188.471     336.804
  C      221.751    -189.373     336.706
  O      228.325    -191.061     339.721
  O      229.695    -191.326     337.591
  H      222.937    -192.980     334.366
  H      229.980    -192.077     338.143
  H      218.389    -190.617     337.697
  H      220.892    -187.424     336.596
  H      222.744    -189.064     336.389
  H      222.174    -192.689     336.865
  H      223.604    -190.420     335.401
  H      225.580    -191.615     335.353
  H      225.246    -192.846     337.889
  H      225.582    -189.884     337.303
  H      225.899    -190.620     338.863
  P      226.238    -194.086     334.776
  C      225.627    -193.376     332.354
  O      226.509    -193.231     333.446
  O      226.256    -195.571     334.573
  O      227.431    -193.649     335.754
  H      228.075    -194.376     335.823
  H      226.137    -193.039     331.445
  H      224.743    -192.753     332.519
  H      225.318    -194.420     332.225
  H      229.204    -187.578     336.742
  H      228.347    -188.916     336.015
  H      230.017    -189.103     336.491

 3  4  5  6  7  8  9  10  11  12  13  23  28  29  30  31  32 0
 6-311+G(2d,p)
 ****
 33  34 0
 6-311+G(2d,p)
 ****
 1  2  14  15  16  17  18  19  20  21  22  24  25  26  27 0
 3-21G
 ****
 35  36  37  38  39  40  41  42  43  44  45 0
 3-21G
 ****


