%nproc=1
%NoSave
%Mem=1900MB
#P OB98/GEN NMR

erre ene a

0 1
  C      -43.391     -13.062      43.388
  O      -43.764     -14.380      43.824
  P      -45.261     -14.901      43.550
  C      -44.657     -16.746      41.797
  O      -45.325     -15.525      42.073
  C      -44.779     -17.087      40.308
  O      -44.308     -15.988      39.495
  C      -43.952     -18.288      39.868
  O      -44.552     -19.514      40.253
  C      -43.903     -18.082      38.359
  O      -45.094     -18.586      37.732
  C      -43.837     -16.546      38.249
  N      -42.498     -16.062      37.920
  C      -42.190     -15.968      36.568
  O      -42.958     -16.320      35.675
  N      -40.945     -15.482      36.272
  C      -39.974     -15.155      37.177
  O      -38.870     -14.742      36.849
  C      -40.331     -15.354      38.590
  C      -41.553     -15.797      38.891
  O      -46.062     -13.525      43.363
  O      -45.869     -15.724      44.637
  H      -45.825     -17.997      38.006
  H      -46.995     -13.651      43.625
  H      -40.711     -15.376      35.298
  H      -39.581     -15.129      39.338
  H      -41.832     -15.947      39.931
  H      -44.533     -16.194      37.480
  H      -43.054     -18.596      37.895
  H      -42.937     -18.209      40.274
  H      -45.841     -17.247      40.080
  H      -45.112     -17.547      42.385
  H      -43.605     -16.652      42.085
  P      -44.384     -19.948      41.789
  C      -46.921     -19.645      42.339
  O      -45.590     -19.235      42.564
  O      -43.076     -19.119      42.199
  O      -44.266     -21.426      41.970
  H      -43.024     -18.266      41.735
  H      -46.983     -20.716      42.129
  H      -47.333     -19.085      41.494
  H      -47.512     -19.426      43.231
  H      -42.370     -12.876      43.647
  H      -44.017     -12.338      43.866
  H      -43.508     -12.991      42.327

 3  4  5  6  7  8  9  10  11  12  13  23  28  29  30  31  32 0
 6-311+G(2d,p)
 ****
 33  34 0
 6-311+G(2d,p)
 ****
 1  2  14  15  16  17  18  19  20  21  22  24  25  26 0
 3-21G
 ****
 27  35  36  37  38  39  40  41  42  43  44  45 0
 3-21G
 ****


