%nproc=1
%NoSave
%Mem=1900MB
#P OB98/GEN NMR

erre ene a

0 1
  C     -178.558    -379.514    -426.183
  O     -177.223    -379.804    -425.762
  P     -176.938    -380.151    -424.228
  C     -177.755    -382.609    -424.229
  O     -176.649    -381.721    -424.080
  C     -177.324    -383.865    -424.991
  O     -177.072    -383.579    -426.387
  C     -176.018    -384.457    -424.466
  O     -176.054    -385.053    -423.193
  C     -175.574    -385.332    -425.635
  O     -176.220    -386.604    -425.615
  C     -176.059    -384.497    -426.851
  N     -174.964    -383.791    -427.516
  C     -174.220    -384.533    -428.427
  O     -174.416    -385.730    -428.642
  N     -173.208    -383.862    -429.055
  C     -172.850    -382.564    -428.849
  O     -171.919    -382.021    -429.430
  C     -173.661    -381.830    -427.860
  C     -174.663    -382.466    -427.250
  O     -177.904    -379.588    -423.243
  O     -175.473    -379.516    -423.992
  H     -175.913    -387.071    -424.818
  H     -175.475    -379.096    -423.109
  H     -172.658    -384.388    -429.726
  H     -173.406    -380.802    -427.667
  H     -175.276    -381.944    -426.520
  H     -176.541    -385.144    -427.595
  H     -174.496    -385.512    -425.613
  H     -175.287    -383.638    -424.394
  H     -178.137    -384.594    -424.945
  H     -178.565    -382.103    -424.754
  H     -178.139    -382.860    -423.229
  P     -174.884    -384.875    -422.107
  C     -176.430    -383.438    -420.603
  O     -175.555    -384.541    -420.691
  O     -173.694    -384.071    -422.509
  O     -174.417    -386.405    -421.893
  H     -173.458    -386.406    -421.708
  H     -176.777    -383.349    -419.568
  H     -177.295    -383.582    -421.253
  H     -175.909    -382.512    -420.874
  H     -178.564    -379.306    -427.233
  H     -178.923    -378.662    -425.648
  H     -179.186    -380.357    -425.983

 3  4  5  6  7  8  9  10  11  12  13  23  28  29  30  31  32 0
 6-311+G(2d,p)
 ****
 33  34 0
 6-311+G(2d,p)
 ****
 1  2  14  15  16  17  18  19  20  21  22  24  25  26  27 0
 3-21G
 ****
 35  36  37  38  39  40  41  42  43  44  45 0
 3-21G
 ****


