%nproc=1
%NoSave
%Mem=1900MB
#P OB98/GEN NMR

erre ene a

0 1
  C      117.906     -89.129    -331.493
  O      116.785     -88.537    -330.875
  P      116.857     -87.988    -329.371
  C      115.564     -90.087    -328.618
  O      116.708     -89.269    -328.407
  C      115.024     -90.605    -327.280
  O      116.072     -91.380    -326.623
  C      114.607     -89.469    -326.323
  O      113.283     -89.587    -325.806
  C      115.719     -89.479    -325.286
  O      115.365     -88.872    -324.058
  C      116.088     -90.964    -325.244
  N      117.381     -91.201    -324.605
  C      117.380     -91.944    -323.428
  O      116.377     -92.419    -322.903
  N      118.592     -92.089    -322.811
  C      119.757     -91.482    -323.176
  O      120.781     -91.573    -322.521
  C      119.687     -90.677    -324.405
  C      118.529     -90.592    -325.065
  O      115.923     -86.870    -329.055
  O      118.405     -87.616    -329.195
  H      114.730     -89.462    -323.605
  H      119.021     -88.361    -329.316
  H      118.606     -92.625    -321.954
  H      120.592     -90.172    -324.716
  H      118.449     -90.003    -325.976
  H      115.331     -91.549    -324.714
  H      116.562     -88.905    -325.695
  H      114.601     -88.498    -326.841
  H      114.180     -91.268    -327.495
  H      115.855     -90.938    -329.241
  H      114.798     -89.524    -329.164
  P      112.213     -88.399    -325.726
  C      112.713     -88.038    -323.197
  O      112.600     -87.464    -324.486
  O      110.788     -88.818    -325.778
  O      112.578     -87.484    -326.991
  H      111.777     -87.028    -327.308
  H      112.473     -87.273    -322.454
  H      113.741     -88.373    -323.040
  H      112.028     -88.880    -323.074
  H      117.649     -89.426    -332.488
  H      118.210     -89.988    -330.932
  H      118.709     -88.423    -331.527

 3  4  5  6  7  8  9  10  11  12  13  23  28  29  30  31  32 0
 6-311+G(2d,p)
 ****
 33  34 0
 6-311+G(2d,p)
 ****
 1  2  14  15  16  17  18  19  20  21  22  24  25  26  27 0
 3-21G
 ****
 35  36  37  38  39  40  41  42  43  44  45 0
 3-21G
 ****


