%nproc=1
%NoSave
%Mem=1900MB
#P OB98/GEN NMR

erre ene a

0 1
  C      415.422    -783.196     102.638
  O      416.813    -783.453     102.566
  H      414.889    -784.053     102.217
  H      415.167    -782.306     102.054
  H      415.104    -783.067     103.678
  P      417.826    -782.337     103.127
  C      419.787    -784.033     103.150
  O      419.262    -782.826     102.603
  C      420.886    -784.583     102.245
  O      420.343    -785.171     101.044
  C      421.894    -783.548     101.747
  O      422.807    -783.103     102.742
  C      422.576    -784.343     100.649
  O      423.488    -785.296     101.235
  C      421.359    -785.052     100.010
  N      420.836    -784.334      98.850
  C      421.054    -784.919      97.593
  O      421.677    -785.972      97.490
  N      420.603    -784.260      96.473
  C      420.005    -783.107      96.586
  N      419.580    -782.496      95.435
  C      419.766    -782.452      97.897
  C      420.195    -783.112      98.960
  O      417.733    -782.041     104.586
  O      417.561    -781.059     102.194
  H      424.253    -784.788     101.559
  H      418.154    -780.334     102.507
  H      419.285    -781.488      97.932
  H      420.067    -782.694      99.956
  H      421.627    -786.080      99.698
  H      423.150    -783.726      99.963
  H      421.372    -782.693     101.290
  H      421.389    -785.391     102.799
  H      419.753    -782.977      94.567
  H      418.961    -784.747     103.247
  H      419.173    -781.572      95.430
  H      420.214    -783.839     104.138
  P      422.964    -781.510     102.931
  C      424.249    -782.101     105.146
  O      424.179    -781.298     103.951
  O      421.660    -781.114     103.775
  O      423.086    -780.740     101.654
  H      420.970    -780.757     103.176
  H      425.118    -781.829     105.708
  H      424.307    -783.135     104.878
  H      423.374    -781.935     105.739

 6  7  8  9  10  11  12  13  14  15  16  26  30  31  32  33  35 0
 6-311+G(2d,p)
 ****
 37  38 0
 6-311+G(2d,p)
 ****
 1  2  3  4  5  17  18  19  20  21  22  23  24  25 0
 3-21G
 ****
 27  28  29  34  36  39  40  41  42  43  44  45  46 0
 3-21G
 ****


