%nproc=1
%NoSave
%Mem=1900MB
#P OB98/GEN NMR

erre ene a

0 1
  C      233.800      90.885     -43.735
  O      233.750      89.727     -42.917
  P      234.371      88.369     -43.505
  C      235.788      87.839     -41.408
  O      235.795      88.171     -42.790
  C      237.182      87.444     -40.936
  O      237.620      86.280     -41.689
  C      238.245      88.539     -41.120
  O      239.066      88.603     -39.946
  C      239.104      88.012     -42.256
  O      240.426      88.538     -42.214
  C      239.009      86.508     -42.003
  N      243.000      84.459     -44.319
  C      242.907      85.039     -43.070
  N      244.055      85.135     -42.364
  N      241.792      85.487     -42.558
  C      240.717      85.298     -43.362
  C      240.681      84.728     -44.615
  C      241.934      84.292     -45.192
  O      242.097      83.853     -46.329
  N      239.403      84.697     -45.110
  C      238.668      85.246     -44.164
  N      239.427      85.672     -43.104
  O      234.752      88.774     -45.006
  O      233.463      87.189     -43.478
  H      240.833      88.359     -43.082
  H      234.314      88.167     -45.633
  H      243.887      84.147     -44.671
  H      237.595      85.386     -44.215
  H      239.608      86.229     -41.124
  H      238.648      88.291     -43.212
  H      244.941      84.778     -42.682
  H      237.835      89.530     -41.338
  H      244.003      85.537     -41.435
  H      237.121      87.139     -39.884
  H      235.102      87.001     -41.243
  H      235.429      88.703     -40.839
  P      240.018      89.890     -39.822
  C      238.682      91.383     -38.159
  O      239.046      91.120     -39.500
  O      240.481      90.155     -41.330
  O      241.171      89.704     -38.894
  H      241.329      90.636     -41.347
  H      239.259      90.783     -37.449
  H      237.620      91.160     -38.028
  H      238.853      92.441     -37.946
  H      233.353      91.707     -43.217
  H      233.266      90.703     -44.644
  H      234.819      91.118     -43.961

 3  4  5  6  7  8  9  10  11  12  23  26  30  31  33  0
 6-311+G(2d,p)
 ****
 35  36  37  38 0
 6-311+G(2d,p)
 ****
 1  2  13  14  15  16  17  18  19  20  21  22  24  25  27  28  29 0
 3-21G
 ****
 32  34  39  40  41  42  43  44  45  46  47  48  49 0
 3-21G
 ****


