%nproc=1
%NoSave
%Mem=1900MB
#P OB98/GEN NMR

erre ene a

0 1
  C      331.442    -116.622    -126.317
  O      330.198    -117.276    -126.554
  P      330.144    -118.471    -127.622
  C      329.258    -117.206    -129.682
  O      330.377    -117.851    -129.081
  C      329.621    -116.668    -131.067
  O      330.233    -117.681    -131.888
  C      328.417    -116.184    -131.858
  O      327.952    -114.938    -131.362
  C      328.981    -116.149    -133.271
  O      329.722    -114.941    -133.501
  C      329.937    -117.362    -133.266
  N      329.408    -118.516    -133.977
  C      330.262    -119.097    -134.922
  O      331.370    -118.611    -135.140
  N      329.827    -120.207    -135.605
  C      328.645    -120.686    -135.371
  N      328.267    -121.788    -136.073
  C      327.711    -120.093    -134.392
  C      328.151    -119.018    -133.744
  O      328.978    -119.397    -127.499
  O      331.524    -119.246    -127.354
  H      329.942    -114.938    -134.454
  H      331.402    -120.192    -127.567
  H      326.736    -120.534    -134.229
  H      327.528    -118.520    -133.010
  H      330.893    -117.095    -133.733
  H      328.188    -116.195    -134.025
  H      327.611    -116.927    -131.798
  H      330.336    -115.845    -130.936
  H      328.923    -122.166    -136.748
  H      328.920    -116.388    -129.041
  H      327.389    -122.262    -135.928
  H      328.429    -117.920    -129.742
  P      326.719    -114.957    -130.342
  C      325.035    -115.372    -132.268
  O      325.535    -115.799    -131.016
  O      326.180    -113.449    -130.401
  O      327.070    -115.349    -128.942
  H      325.836    -113.189    -129.525
  H      324.483    -116.202    -132.724
  H      325.843    -115.075    -132.941
  H      324.351    -114.534    -132.122
  H      331.308    -115.855    -125.583
  H      331.795    -116.186    -127.228
  H      332.157    -117.334    -125.962

 3  4  5  6  7  8  9  10  11  12  13  23  27  28  29  30  32 0
 6-311+G(2d,p)
 ****
 34  35 0
 6-311+G(2d,p)
 ****
 1  2  14  15  16  17  18  19  20  21  22  24  25  26 0
 3-21G
 ****
 31  33  36  37  38  39  40  41  42  43  44  45  46 0
 3-21G
 ****


