%nproc=1
%NoSave
%Mem=1900MB
#P OB98/GEN NMR

erre ene a

0 1
  C       20.215    -259.620    -150.597
  O       20.936    -258.667    -149.803
  P       20.632    -258.615    -148.231
  C       22.131    -259.294    -146.214
  O       21.628    -259.639    -147.496
  C       23.023    -260.419    -145.675
  O       22.253    -261.587    -145.316
  C       24.069    -260.899    -146.670
  O       25.220    -260.064    -146.672
  C       24.423    -262.262    -146.088
  O       25.345    -262.101    -144.991
  C       23.063    -262.761    -145.583
  N       23.134    -267.271    -147.875
  C       23.990    -266.740    -146.931
  N       25.015    -267.529    -146.533
  N       23.856    -265.542    -146.420
  C       22.782    -264.876    -146.899
  C       21.858    -265.293    -147.835
  C       22.026    -266.616    -148.399
  O       21.306    -267.136    -149.251
  N       20.910    -264.334    -148.068
  C       21.241    -263.341    -147.264
  N       22.378    -263.613    -146.544
  O       19.214    -259.357    -148.117
  O       20.582    -257.235    -147.660
  H       24.923    -261.485    -144.360
  H       18.730    -259.024    -147.340
  H       23.287    -268.200    -148.238
  H       20.689    -262.414    -147.163
  H       23.146    -263.328    -144.648
  H       24.912    -262.912    -146.821
  H       25.148    -268.478    -146.844
  H       23.639    -261.015    -147.674
  H       25.633    -267.166    -145.818
  H       23.530    -260.046    -144.773
  H       21.308    -259.110    -145.518
  H       22.677    -258.349    -146.290
  P       25.341    -258.956    -147.829
  C       23.995    -256.810    -148.405
  O       24.309    -257.793    -147.439
  O       24.655    -259.678    -149.083
  O       26.733    -258.523    -148.135
  H       25.072    -259.374    -149.914
  H       23.164    -256.203    -148.027
  H       23.693    -257.271    -149.349
  H       24.858    -256.157    -148.574
  H       20.522    -259.538    -151.619
  H       19.166    -259.425    -150.523
  H       20.420    -260.608    -150.241

 3  4  5  6  7  8  9  10  11  12  23  26  30  31 0
 6-311+G(2d,p)
 ****
 33  35  36  37  38 0
 6-311+G(2d,p)
 ****
 1  2  13  14  15  16  17  18  19  20  21  22  24  25 0
 3-21G
 ****
 27  28  29  32  34  39  40  41  42  43  44  45  46  47  48  49 0
 3-21G
 ****


