%nproc=1
%NoSave
%Mem=1900MB
#P OB98/GEN NMR

erre ene a

0 1
  C      -95.907     195.672      46.269
  O      -94.500     195.544      46.331
  P      -93.554     196.805      46.036
  C      -92.944     198.148      43.918
  O      -93.523     196.951      44.435
  C      -92.103     197.850      42.676
  O      -90.988     196.999      43.011
  C      -92.859     197.127      41.570
  O      -93.698     198.027      40.867
  C      -91.710     196.557      40.751
  O      -91.178     197.539      39.847
  C      -90.677     196.206      41.844
  N      -90.652     194.780      42.149
  C      -89.633     194.041      41.536
  O      -88.845     194.589      40.764
  N      -89.566     192.688      41.774
  C      -90.450     192.125      42.539
  N      -90.336     190.781      42.728
  C      -91.557     192.865      43.179
  C      -91.598     194.174      42.943
  O      -92.219     196.770      46.703
  O      -94.456     198.050      46.488
  H      -90.797     198.244      40.406
  H      -94.511     198.117      47.473
  H      -92.275     192.349      43.799
  H      -92.377     194.793      43.370
  H      -89.668     196.504      41.529
  H      -92.022     195.699      40.146
  H      -93.448     196.305      42.000
  H      -91.705     198.803      42.300
  H      -89.581     190.307      42.246
  H      -92.304     198.582      44.691
  H      -90.989     190.239      43.271
  H      -93.740     198.862      43.685
  P      -95.061     197.504      40.213
  C      -95.741     196.014      38.238
  O      -94.689     196.721      38.865
  O      -96.143     198.524      40.082
  O      -95.516     196.321      41.198
  H      -96.474     196.402      41.370
  H      -95.463     195.818      37.199
  H      -96.669     196.592      38.254
  H      -95.894     195.061      38.750
  H      -96.361     194.730      46.495
  H      -96.194     195.980      45.285
  H      -96.230     196.403      46.980

 3  4  5  6  7  8  9  10  11  12  13  23  27  28  29  30  32 0
 6-311+G(2d,p)
 ****
 34  35 0
 6-311+G(2d,p)
 ****
 1  2  14  15  16  17  18  19  20  21  22  24  25  26 0
 3-21G
 ****
 31  33  36  37  38  39  40  41  42  43  44  45  46 0
 3-21G
 ****


