%nproc=1
%NoSave
%Mem=1900MB
#P OB98/GEN NMR

erre ene a

0 1
  C      112.968     116.192       5.415
  O      111.927     115.331       5.830
  P      111.290     114.259       4.830
  C      112.694     112.344       5.792
  O      112.353     113.078       4.624
  C      112.606     110.838       5.549
  O      113.037     110.132       6.741
  C      111.199     110.342       5.191
  O      111.350     109.312       4.208
  C      110.699     109.761       6.500
  O      109.654     108.817       6.309
  C      111.999     109.190       7.074
  N      111.923     108.967       8.509
  C      112.098     107.656       8.956
  O      112.174     106.731       8.146
  N      112.164     107.428      10.307
  C      111.889     108.392      11.132
  N      112.034     108.141      12.461
  C      111.455     109.730      10.686
  C      111.536     109.960       9.378
  O      110.740     114.824       3.562
  O      110.134     113.556       5.689
  H      109.295     113.600       5.191
  H      109.234     108.631       7.175
  H      111.116     110.459      11.405
  H      111.265     110.920       8.954
  H      112.254     108.242       6.583
  H      110.318     110.566       7.138
  H      110.559     111.133       4.791
  H      113.310     110.581       4.748
  H      112.372     107.225      12.728
  H      111.993     112.618       6.583
  H      112.154     108.889      13.142
  H      113.700     112.623       6.126
  P      110.056     108.867       3.367
  C      110.175     110.990       1.881
  O      109.398     110.187       2.743
  O      109.020     108.499       4.539
  O      110.224     107.697       2.454
  H      108.368     107.861       4.196
  H      109.593     111.874       1.608
  H      110.422     110.440       0.968
  H      111.093     111.314       2.378
  H      113.250     116.828       6.228
  H      112.630     116.790       4.595
  H      113.812     115.610       5.108

 3  4  5  6  7  8  9  10  11  12  13  24  27  28  29  30  32 0
 6-311+G(2d,p)
 ****
 34  35 0
 6-311+G(2d,p)
 ****
 1  2  14  15  16  17  18  19  20  21  22  23  25  26 0
 3-21G
 ****
 31  33  36  37  38  39  40  41  42  43  44  45  46 0
 3-21G
 ****


