%nproc=1
%NoSave
%Mem=1900MB
#P OB98/GEN NMR

erre ene a

0 1
  C     -833.432    1135.052     -28.019
  O     -833.826    1135.895     -29.105
  P     -833.786    1135.383     -30.622
  C     -831.508    1136.367     -31.251
  O     -832.234    1135.176     -30.955
  C     -830.690    1136.167     -32.538
  O     -829.521    1135.359     -32.223
  C     -831.382    1135.429     -33.656
  O     -832.200    1136.251     -34.502
  C     -830.190    1134.957     -34.472
  O     -829.668    1136.011     -35.278
  C     -829.193    1134.564     -33.383
  N     -828.212    1129.805     -35.027
  C     -828.003    1131.026     -35.582
  N     -828.346    1132.241     -35.096
  C     -828.835    1132.134     -33.863
  C     -829.087    1130.991     -33.140
  C     -828.719    1129.771     -33.756
  N     -828.916    1128.531     -33.173
  N     -829.645    1131.269     -31.914
  C     -829.712    1132.585     -31.892
  N     -829.216    1133.151     -33.035
  O     -834.560    1136.227     -31.584
  O     -834.330    1133.880     -30.533
  H     -828.833    1135.693     -35.687
  H     -834.606    1133.567     -31.438
  H     -827.564    1131.014     -36.593
  H     -830.116    1133.167     -31.060
  H     -828.145    1134.814     -33.665
  H     -830.441    1134.137     -35.158
  H     -831.936    1134.559     -33.298
  H     -830.329    1137.151     -32.865
  H     -830.804    1136.543     -30.424
  H     -828.517    1127.734     -33.664
  H     -829.141    1128.502     -32.203
  H     -832.169    1137.215     -31.354
  P     -833.518    1135.562     -35.140
  C     -832.630    1135.089     -37.551
  O     -832.969    1134.575     -36.282
  O     -834.557    1136.527     -35.543
  O     -833.996    1134.562     -33.962
  H     -833.394    1133.808     -33.810
  H     -832.131    1134.287     -38.144
  H     -831.943    1135.926     -37.466
  H     -833.524    1135.410     -38.086
  H     -833.534    1135.586     -27.098
  H     -832.412    1134.757     -28.149
  H     -834.055    1134.182     -27.998

 3  4  5  6  7  8  9  10  11  12  22  25  29  30  31  32 0
 6-311+G(2d,p)
 ****
 33  36  37 0
 6-311+G(2d,p)
 ****
 1  2  13  14  15  16  17  18  19  20  21  23  24  26 0
 3-21G
 ****
 27  28  34  35  38  39  40  41  42  43  44  45  46  47  48 0
 3-21G
 ****


