%nproc=1
%NoSave
%Mem=1900MB
#P OB98/GEN NMR

erre ene a

0 1
  C     -256.276     329.211     200.113
  O     -255.114     329.212     200.918
  H     -256.397     330.179     199.619
  H     -256.174     328.434     199.352
  H     -257.156     328.994     200.726
  P     -255.023     330.359     202.036
  C     -255.150     328.542     203.879
  O     -255.687     329.751     203.365
  C     -254.253     328.832     205.076
  O     -254.982     329.562     206.083
  C     -253.716     327.596     205.787
  O     -252.616     327.020     205.095
  C     -253.288     328.200     207.117
  O     -252.001     328.832     206.970
  C     -254.370     329.261     207.363
  N     -257.646     330.768     211.019
  C     -256.742     331.451     210.282
  N     -255.898     330.986     209.338
  C     -256.061     329.663     209.166
  C     -256.940     328.834     209.841
  C     -257.759     329.436     210.813
  N     -258.667     328.728     211.571
  N     -256.836     327.539     209.387
  C     -255.909     327.578     208.453
  N     -255.405     328.841     208.288
  O     -256.099     331.443     201.548
  O     -253.674     330.970     202.214
  H     -252.085     329.464     206.232
  H     -255.768     332.334     201.762
  H     -256.690     332.520     210.474
  H     -255.577     326.726     207.873
  H     -253.937     330.197     207.738
  H     -253.198     327.459     207.915
  H     -254.511     326.862     205.961
  H     -253.427     329.471     204.733
  H     -254.561     328.046     203.102
  H     -259.353     329.235     212.100
  H     -258.747     327.730     211.404
  H     -255.976     327.885     204.174
  P     -252.748     325.484     204.645
  C     -252.092     326.112     202.216
  O     -253.062     325.519     203.073
  O     -254.146     325.038     205.288
  O     -251.631     324.598     205.078
  H     -254.151     324.072     205.432
  H     -252.434     326.064     201.203
  H     -251.166     325.583     202.305
  H     -251.947     327.135     202.496

 6  7  8  9  10  11  12  13  14  15  25  28  32  33  34  35 0
 6-311+G(2d,p)
 ****
 36  39  40 0
 6-311+G(2d,p)
 ****
 1  2  3  4  5  16  17  18  19  20  21  22  23  24 0
 3-21G
 ****
 26  27  29  30  31  37  38  41  42  43  44  45  46  47  48 0
 3-21G
 ****


