%nproc=1
%NoSave
%Mem=1900MB
#P OB98/GEN NMR

erre ene a

0 1
  C        1.497     145.259    -661.966
  O        2.855     145.657    -661.990
  H        1.097     145.428    -660.962
  H        1.421     144.193    -662.198
  H        0.911     145.841    -662.685
  P        3.572     145.682    -663.424
  C        4.372     143.237    -663.066
  O        3.688     144.154    -663.905
  C        5.169     142.238    -663.898
  O        4.286     141.254    -664.486
  C        5.934     142.867    -665.063
  O        7.179     143.420    -664.641
  C        6.143     141.650    -665.949
  O        7.216     140.839    -665.415
  C        4.801     140.923    -665.805
  N        3.223     140.165    -670.569
  C        4.299     139.611    -669.886
  N        5.058     138.734    -670.574
  N        4.595     139.885    -668.644
  C        3.749     140.791    -668.081
  C        2.657     141.410    -668.654
  C        2.332     141.083    -670.026
  O        1.387     141.533    -670.669
  N        2.035     142.252    -667.768
  C        2.761     142.161    -666.672
  N        3.819     141.293    -666.810
  O        5.090     146.068    -663.073
  O        2.989     146.630    -664.418
  H        7.986     141.423    -665.314
  H        5.445     146.636    -663.787
  H        3.046     139.925    -671.529
  H        2.568     142.700    -665.752
  H        4.914     139.830    -665.850
  H        6.427     141.914    -666.968
  H        4.918     138.516    -671.552
  H        5.325     143.609    -665.591
  H        5.833     138.292    -670.087
  H        5.859     141.706    -663.227
  H        3.639     142.693    -662.455
  H        5.041     143.793    -662.396
  P        7.854     144.535    -665.580
  C        8.853     142.818    -667.260
  O        7.925     143.880    -667.047
  O        9.387     144.533    -665.100
  O        7.234     145.892    -665.493
  H        9.803     145.390    -665.316
  H        8.788     142.485    -668.275
  H        8.622     142.006    -666.603
  H        9.845     143.166    -667.062

 6  7  8  9  10  11  12  13  14  15  26  29  33  34 0
 6-311+G(2d,p)
 ****
 36  38  39  40  41 0
 6-311+G(2d,p)
 ****
 1  2  3  4  5  16  17  18  19  20  21  22  23  24  25 0
 3-21G
 ****
 27  28  30  31  32  35  37  42  43  44  45  46  47 0
 3-21G
 ****
 48  49 0
 3-21G
 ****


