%nproc=1
%NoSave
%Mem=1900MB
#P OB98/GEN NMR

erre ene a

0 1
  C     -150.202    -200.704     -46.928
  O     -150.758    -200.072     -48.088
  P     -152.137    -200.644     -48.670
  C     -154.503    -199.666     -49.137
  O     -153.275    -199.537     -48.434
  C     -155.593    -198.829     -48.458
  O     -155.810    -199.242     -47.091
  C     -155.273    -197.343     -48.397
  O     -155.601    -196.680     -49.613
  C     -156.214    -196.885     -47.291
  O     -157.545    -196.715     -47.820
  C     -156.168    -198.070     -46.316
  N     -155.511    -196.306     -41.620
  C     -156.646    -196.345     -42.405
  N     -157.777    -195.845     -41.855
  N     -156.674    -196.828     -43.619
  C     -155.479    -197.307     -44.031
  C     -154.280    -197.326     -43.348
  C     -154.262    -196.776     -42.008
  O     -153.282    -196.701     -41.269
  N     -153.282    -197.889     -44.098
  C     -153.874    -198.229     -45.227
  N     -155.202    -197.884     -45.244
  O     -152.525    -201.783     -47.609
  O     -152.038    -201.191     -50.057
  H     -157.505    -195.961     -48.440
  H     -153.062    -202.470     -48.044
  H     -155.545    -195.916     -40.690
  H     -153.386    -198.729     -46.057
  H     -157.140    -198.264     -45.847
  H     -155.918    -195.922     -46.865
  H     -157.841    -195.506     -40.909
  H     -154.229    -197.172     -48.100
  H     -158.626    -195.894     -42.406
  H     -156.528    -198.972     -49.018
  H     -154.812    -200.714     -49.176
  H     -154.350    -199.361     -50.176
  P     -154.427    -195.902     -50.384
  C     -151.965    -196.608     -50.812
  O     -153.318    -197.005     -50.732
  O     -153.755    -195.031     -49.220
  O     -154.884    -195.050     -51.517
  H     -153.403    -194.198     -49.587
  H     -151.342    -197.505     -50.894
  H     -151.666    -196.053     -49.918
  H     -151.805    -195.988     -51.700
  H     -149.288    -200.216     -46.659
  H     -150.007    -201.734     -47.142
  H     -150.896    -200.634     -46.116

 3  4  5  6  7  8  9  10  11  12  23  26  30  31 0
 6-311+G(2d,p)
 ****
 33  35  36  37  38 0
 6-311+G(2d,p)
 ****
 1  2  13  14  15  16  17  18  19  20  21  22  24  25 0
 3-21G
 ****
 27  28  29  32  34  39  40  41  42  43  44  45  46  47  48  49 0
 3-21G
 ****


