%nproc=1
%NoSave
%Mem=1900MB
#P OB98/GEN NMR

erre ene a

0 1
  C      -60.377     162.103     -49.062
  O      -59.000     161.799     -48.962
  H      -60.536     163.123     -48.702
  H      -60.961     161.419     -48.441
  H      -60.715     162.042     -50.101
  P      -58.469     160.414     -49.570
  C      -57.437     158.715     -47.926
  O      -58.630     159.309     -48.422
  C      -56.799     159.626     -46.881
  O      -57.721     159.859     -45.793
  C      -55.544     159.047     -46.242
  O      -54.433     159.147     -47.111
  C      -55.446     159.893     -44.983
  O      -54.851     161.169     -45.266
  C      -56.932     160.050     -44.596
  N      -57.345     159.128     -43.538
  C      -56.743     159.298     -42.296
  O      -55.879     160.146     -42.073
  N      -57.145     158.431     -41.314
  C      -57.984     157.368     -41.479
  O      -58.245     156.567     -40.588
  C      -58.572     157.222     -42.819
  C      -58.233     158.095     -43.771
  O      -57.125     160.464     -50.216
  O      -59.608     160.003     -50.621
  H      -53.961     160.984     -45.624
  H      -59.286     160.172     -51.528
  H      -56.710     158.530     -40.411
  H      -59.254     156.401     -42.987
  H      -58.651     158.000     -44.766
  H      -57.129     161.076     -44.251
  H      -54.837     159.419     -44.212
  H      -55.716     158.003     -45.953
  H      -56.584     160.595     -47.355
  H      -56.742     158.574     -48.761
  H      -57.679     157.736     -47.495
  P      -53.117     158.280     -46.831
  C      -50.980     159.412     -45.960
  O      -52.305     158.995     -45.647
  O      -52.308     157.938     -48.036
  O      -53.679     156.954     -46.130
  H      -53.447     156.177     -46.675
  H      -50.539     159.873     -45.101
  H      -51.008     160.115     -46.766
  H      -50.397     158.562     -46.248

 6  7  8  9  10  11  12  13  14  15  16  26  31  32  33  34  35 0
 6-311+G(2d,p)
 ****
 36  37 0
 6-311+G(2d,p)
 ****
 1  2  3  4  5  17  18  19  20  21  22  23  24  25 0
 3-21G
 ****
 27  28  29  30  38  39  40  41  42  43  44  45 0
 3-21G
 ****


