%nproc=1
%NoSave
%Mem=1900MB
#P OB98/GEN NMR

erre ene a

0 1
  C      706.303    -137.976    -278.853
  O      705.876    -139.251    -278.433
  H      706.023    -137.242    -278.091
  H      705.829    -137.693    -279.798
  H      707.393    -137.963    -278.971
  P      705.939    -140.461    -279.490
  C      704.946    -140.873    -281.844
  O      704.957    -140.033    -280.686
  C      703.638    -140.731    -282.623
  O      702.521    -141.134    -281.800
  C      703.330    -139.295    -283.031
  O      704.188    -138.786    -284.035
  C      701.830    -139.342    -283.297
  O      701.490    -139.772    -284.614
  C      701.361    -140.409    -282.266
  N      700.615    -139.810    -281.166
  C      699.250    -139.663    -281.377
  O      698.681    -139.975    -282.426
  N      698.547    -139.082    -280.350
  C      699.078    -138.613    -279.189
  O      698.398    -138.066    -278.328
  C      700.528    -138.772    -279.035
  C      701.224    -139.361    -280.012
  O      705.663    -141.830    -278.940
  O      707.390    -140.314    -280.146
  H      701.697    -139.029    -285.219
  H      707.656    -141.142    -280.615
  H      697.552    -138.972    -280.486
  H      700.992    -138.409    -278.116
  H      702.303    -139.491    -279.922
  H      700.716    -141.144    -282.757
  H      701.366    -138.363    -283.149
  H      703.471    -138.645    -282.159
  H      703.676    -141.400    -283.487
  H      705.050    -141.915    -281.501
  H      705.809    -140.628    -282.480
  P      704.671    -137.266    -284.085
  C      703.521    -134.926    -284.152
  O      703.381    -136.335    -284.331
  O      705.914    -136.976    -284.856
  O      704.999    -136.983    -282.528
  H      705.754    -136.363    -282.492
  H      702.585    -134.447    -284.350
  H      704.263    -134.553    -284.827
  H      703.820    -134.722    -283.145

 6  7  8  9  10  11  12  13  14  15  16  26  31  32  33  34  35 0
 6-311+G(2d,p)
 ****
 36  37 0
 6-311+G(2d,p)
 ****
 1  2  3  4  5  17  18  19  20  21  22  23  24  25 0
 3-21G
 ****
 27  28  29  30  38  39  40  41  42  43  44  45 0
 3-21G
 ****


