%nproc=1
%NoSave
%Mem=1900MB
#P OB98/GEN NMR

erre ene a

0 1
  C      125.156     138.782    -387.079
  O      126.305     138.681    -387.937
  P      127.531     137.742    -387.495
  C      128.724     137.675    -389.814
  O      128.803     138.001    -388.436
  C      128.287     138.887    -390.650
  O      129.130     140.035    -390.344
  C      128.358     138.672    -392.168
  O      127.298     139.439    -392.754
  C      129.703     139.281    -392.522
  O      129.823     139.611    -393.899
  C      129.707     140.493    -391.585
  N      131.031     141.074    -391.361
  C      131.177     142.447    -391.528
  O      130.282     143.199    -391.910
  N      132.425     142.951    -391.265
  C      133.525     142.230    -390.901
  O      134.623     142.736    -390.711
  C      133.319     140.781    -390.768
  C      132.104     140.280    -391.000
  O      127.035     136.298    -387.985
  O      127.822     137.715    -386.028
  H      129.800     138.776    -394.401
  H      127.189     135.640    -387.282
  H      132.545     143.946    -391.367
  H      134.166     140.174    -390.477
  H      131.927     139.215    -390.895
  H      129.036     141.263    -391.978
  H      130.500     138.570    -392.281
  H      128.271     137.619    -392.456
  H      127.268     139.157    -390.350
  H      127.997     136.869    -389.952
  H      129.701     137.315    -390.153
  P      126.319     138.715    -393.805
  C      123.945     139.439    -392.979
  O      124.993     139.606    -393.907
  O      125.848     137.453    -392.932
  O      126.970     138.331    -395.092
  H      125.606     137.696    -392.024
  H      124.327     139.299    -391.965
  H      123.340     138.575    -393.260
  H      123.316     140.332    -392.996
  H      124.439     139.443    -387.520
  H      125.455     139.165    -386.126
  H      124.719     137.814    -386.953

 3  4  5  6  7  8  9  10  11  12  13  23  28  29  30  31  32 0
 6-311+G(2d,p)
 ****
 33  34 0
 6-311+G(2d,p)
 ****
 1  2  14  15  16  17  18  19  20  21  22  24  25  26 0
 3-21G
 ****
 27  35  36  37  38  39  40  41  42  43  44  45 0
 3-21G
 ****


