%nproc=1
%NoSave
%Mem=1900MB
#P OB98/GEN NMR

erre ene a

0 1
  C       67.670     107.995     320.604
  O       68.537     107.245     321.464
  P       68.686     107.723     322.985
  C       71.144     108.500     322.648
  O       70.241     107.680     323.371
  C       72.101     109.213     323.608
  O       71.449     110.300     324.300
  C       72.665     108.306     324.693
  O       73.781     107.558     324.226
  C       73.122     109.329     325.719
  O       74.396     109.882     325.329
  C       72.025     110.395     325.628
  N       71.084     109.885     330.572
  C       72.282     110.057     329.907
  N       73.394     110.110     330.672
  N       72.383     110.169     328.609
  C       71.189     110.117     327.973
  C       69.939     109.948     328.519
  C       69.842     109.810     329.955
  O       68.810     109.641     330.598
  N       68.968     109.939     327.553
  C       69.625     110.122     326.424
  N       70.980     110.218     326.625
  O       68.083     106.488     323.806
  O       67.973     108.996     323.301
  H       74.625     110.555     326.000
  H       67.719     106.800     324.655
  H       71.064     109.799     331.573
  H       69.172     110.191     325.445
  H       72.415     111.412     325.747
  H       73.262     108.889     326.712
  H       73.385     110.081     331.682
  H       71.886     107.664     325.119
  H       74.278     110.269     330.206
  H       72.931     109.626     323.018
  H       70.599     109.238     322.053
  H       71.687     107.881     321.927
  P       73.493     106.148     323.517
  C       74.317     104.729     325.527
  O       74.510     105.104     324.180
  O       74.068     106.370     322.041
  O       72.058     105.743     323.496
  H       73.555     105.842     321.401
  H       74.991     103.900     325.758
  H       73.288     104.401     325.697
  H       74.552     105.567     326.189
  H       67.673     107.559     319.627
  H       68.014     109.006     320.545
  H       66.676     107.979     320.999

 3  4  5  6  7  8  9  10  11  12  23  26  30  31 0
 6-311+G(2d,p)
 ****
 33  35  36  37  38 0
 6-311+G(2d,p)
 ****
 1  2  13  14  15  16  17  18  19  20  21  22  24  25 0
 3-21G
 ****
 27  28  29  32  34  39  40  41  42  43  44  45  46  47  48  49 0
 3-21G
 ****


