%nproc=1
%NoSave
%Mem=1900MB
#P OB98/GEN NMR

erre ene a

0 1
  C      175.658     667.284     166.841
  O      176.985     666.962     167.287
  P      177.286     666.710     168.843
  C      178.354     668.955     169.451
  O      177.216     668.108     169.627
  C      178.842     669.592     170.758
  O      179.333     668.601     171.690
  C      179.954     670.639     170.591
  O      179.730     671.612     171.611
  C      181.209     669.830     170.883
  O      182.331     670.651     171.207
  C      180.704     668.921     172.009
  N      181.525     667.719     172.146
  C      182.333     667.633     173.287
  O      182.397     668.574     174.083
  N      183.104     666.516     173.466
  C      183.134     665.603     172.547
  N      183.943     664.526     172.769
  C      182.363     665.682     171.294
  C      181.581     666.744     171.177
  O      178.516     665.906     169.114
  O      175.976     665.937     169.365
  H      182.025     671.363     171.805
  H      176.227     665.343     170.097
  H      182.434     664.910     170.541
  H      180.957     666.901     170.290
  H      180.699     669.454     172.971
  H      181.481     669.229     169.994
  H      179.979     671.109     169.602
  H      177.963     670.059     171.238
  H      184.484     664.517     173.632
  H      178.099     669.746     168.740
  H      184.129     663.815     172.077
  H      179.163     668.364     169.003
  P      179.128     673.067     171.294
  C      181.076     674.699     171.707
  O      180.345     673.963     170.744
  O      178.357     673.691     172.403
  O      178.201     672.847     169.994
  H      177.600     673.609     169.908
  H      181.986     675.083     171.256
  H      181.346     674.057     172.565
  H      180.468     675.520     172.075
  H      175.660     667.414     165.779
  H      175.334     668.189     167.311
  H      174.991     666.489     167.101

 3  4  5  6  7  8  9  10  11  12  13  23  27  28  29  30  32 0
 6-311+G(2d,p)
 ****
 34  35 0
 6-311+G(2d,p)
 ****
 1  2  14  15  16  17  18  19  20  21  22  24  25  26 0
 3-21G
 ****
 31  33  36  37  38  39  40  41  42  43  44  45  46 0
 3-21G
 ****


