%nproc=1
%NoSave
%Mem=1900MB
#P OB98/GEN NMR

erre ene a

0 1
  C      239.594     502.393     119.912
  O      238.702     501.290     119.898
  P      239.331     499.813     119.778
  C      238.251     499.246     117.472
  O      238.325     498.963     118.858
  C      237.951     497.977     116.681
  O      239.131     497.128     116.713
  C      236.777     497.144     117.206
  O      236.163     496.516     116.070
  C      237.461     496.094     118.060
  O      236.651     494.941     118.268
  C      238.729     495.849     117.249
  N      240.047     492.076     120.353
  C      238.821     492.370     119.787
  N      237.820     491.496     120.040
  N      238.594     493.417     119.043
  C      239.697     494.187     118.863
  C      240.949     494.024     119.398
  C      241.193     492.842     120.189
  O      242.288     492.498     120.638
  N      241.776     495.066     119.059
  C      241.049     495.814     118.258
  N      239.791     495.297     118.070
  O      239.108     499.212     121.243
  O      240.765     499.752     119.345
  H      237.115     494.361     118.911
  H      239.896     499.347     121.806
  H      240.170     491.241     120.903
  H      241.373     496.724     117.782
  H      238.566     495.157     116.412
  H      237.695     496.514     119.048
  H      237.928     490.652     120.584
  H      236.041     497.727     117.761
  H      236.919     491.669     119.614
  H      237.783     498.257     115.632
  H      239.209     499.655     117.143
  H      237.480     500.006     117.298
  P      234.561     496.479     116.012
  C      234.200     493.963     115.503
  O      234.141     495.293     115.020
  O      234.214     497.801     115.166
  O      233.885     496.500     117.341
  H      233.356     498.166     115.471
  H      233.536     493.336     114.896
  H      233.895     493.896     116.549
  H      235.228     493.590     115.399
  H      239.036     503.302     119.995
  H      240.161     502.405     119.005
  H      240.258     502.304     120.746

 3  4  5  6  7  8  9  10  11  12  23  26  30  31 0
 6-311+G(2d,p)
 ****
 33  35  36  37  38 0
 6-311+G(2d,p)
 ****
 1  2  13  14  15  16  17  18  19  20  21  22  24  25 0
 3-21G
 ****
 27  28  29  32  34  39  40  41  42  43  44  45  46  47  48  49 0
 3-21G
 ****


