%nproc=1
%NoSave
%Mem=1900MB
#P OB98/GEN NMR

erre ene a

0 1
  C     -890.910     297.235    -570.466
  O     -891.370     298.546    -570.085
  P     -892.570     298.612    -569.041
  C     -894.400     299.293    -570.760
  O     -893.660     299.657    -569.597
  C     -895.340     300.431    -571.158
  O     -896.330     300.687    -570.130
  C     -894.620     301.761    -571.379
  O     -893.940     301.766    -572.621
  C     -895.810     302.728    -571.313
  O     -896.540     302.739    -572.553
  C     -896.680     302.095    -570.210
  N     -898.670     305.387    -566.835
  C     -899.070     304.996    -568.057
  N     -898.480     304.107    -568.892
  C     -897.360     303.606    -568.352
  C     -896.820     303.915    -567.114
  C     -897.520     304.863    -566.338
  N     -897.070     305.295    -565.090
  N     -895.650     303.217    -566.893
  C     -895.480     302.503    -568.002
  N     -896.500     302.702    -568.913
  O     -891.940     299.362    -567.774
  O     -893.120     297.266    -568.658
  H     -897.380     303.215    -572.401
  H     -891.790     298.739    -567.044
  H     -900.000     305.432    -568.414
  H     -894.650     301.834    -568.195
  H     -897.740     302.139    -570.441
  H     -895.510     303.758    -571.096
  H     -893.930     301.960    -570.566
  H     -895.880     300.129    -572.078
  H     -894.960     298.375    -570.583
  H     -897.600     306.020    -564.641
  H     -896.180     304.957    -564.761
  H     -893.690     299.066    -571.575
  P     -892.350     301.618    -572.592
  C     -892.000     304.161    -572.336
  O     -891.820     303.030    -573.172
  O     -892.090     300.618    -573.809
  O     -891.780     301.220    -571.257
  H     -892.590     300.857    -574.600
  H     -891.570     305.033    -572.834
  H     -891.490     304.008    -571.384
  H     -893.070     304.325    -572.148
  H     -890.107     297.329    -571.167
  H     -891.714     296.692    -570.916
  H     -890.567     296.711    -569.598

 3  4  5  6  7  8  9  10  11  12  22  25  29  30  31  32 0
 6-311+G(2d,p)
 ****
 33  36  37 0
 6-311+G(2d,p)
 ****
 1  2  13  14  15  16  17  18  19  20  21  23  24  26 0
 3-21G
 ****
 27  28  34  35  38  39  40  41  42  43  44  45  46  47  48 0
 3-21G
 ****


