%nproc=1
%NoSave
%Mem=1900MB
#P OB98/GEN NMR

erre ene a

0 1
  C      163.308     -64.090     134.713
  O      164.491     -64.226     135.474
  H      162.451     -64.128     135.391
  H      163.223     -64.905     133.989
  H      163.307     -63.129     134.191
  P      165.868     -64.310     134.646
  C      167.484     -62.955     136.181
  O      166.997     -64.230     135.788
  C      167.742     -62.935     137.685
  O      166.493     -62.846     138.410
  C      168.433     -64.183     138.225
  O      169.828     -64.206     137.971
  C      168.133     -64.026     139.706
  O      168.971     -62.998     140.263
  C      166.658     -63.577     139.659
  N      165.715     -64.699     139.724
  C      165.171     -64.990     140.981
  O      165.481     -64.327     141.969
  N      164.309     -66.054     141.098
  C      163.998     -66.753     140.050
  N      163.140     -67.797     140.230
  C      164.535     -66.478     138.708
  C      165.377     -65.448     138.617
  O      165.970     -62.873     133.950
  O      166.001     -65.464     133.710
  H      169.820     -63.423     140.493
  H      166.858     -62.764     133.531
  H      164.255     -67.094     137.866
  H      165.812     -65.181     137.659
  H      166.429     -62.883     140.479
  H      168.316     -64.931     140.283
  H      167.955     -65.100     137.863
  H      168.318     -62.029     137.914
  H      162.836     -67.998     141.174
  H      166.734     -62.202     135.915
  H      162.957     -68.487     139.511
  H      168.416     -62.729     135.651
  P      170.446     -65.562     137.376
  C      172.517     -64.291     136.446
  O      172.029     -65.348     137.264
  O      169.958     -65.550     135.854
  O      170.019     -66.810     138.088
  H      169.784     -66.455     135.535
  H      173.587     -64.281     136.477
  H      172.141     -63.357     136.808
  H      172.190     -64.440     135.438

 6  7  8  9  10  11  12  13  14  15  16  26  30  31  32  33  35 0
 6-311+G(2d,p)
 ****
 37  38 0
 6-311+G(2d,p)
 ****
 1  2  3  4  5  17  18  19  20  21  22  23  24  25 0
 3-21G
 ****
 27  28  29  34  36  39  40  41  42  43  44  45  46 0
 3-21G
 ****


