%nproc=1
%NoSave
%Mem=1900MB
#P OB98/GEN NMR

erre ene a

0 1
  C      -82.758     -55.416    -527.524
  O      -82.482     -56.544    -526.717
  H      -83.177     -55.758    -528.474
  H      -81.838     -54.860    -527.724
  H      -83.486     -54.765    -527.032
  P      -81.836     -56.250    -525.277
  C      -83.299     -57.861    -523.867
  O      -82.997     -56.514    -524.203
  C      -84.811     -58.076    -523.822
  O      -85.386     -57.936    -525.142
  C      -85.236     -59.442    -523.302
  O      -85.249     -59.472    -521.887
  C      -86.633     -59.565    -523.901
  O      -87.609     -58.843    -523.123
  C      -86.448     -58.918    -525.283
  N      -88.165     -62.838    -527.963
  C      -88.793     -62.072    -527.000
  N      -90.050     -62.439    -526.666
  N      -88.238     -61.046    -526.411
  C      -86.969     -60.815    -526.822
  C      -86.245     -61.494    -527.781
  C      -86.883     -62.609    -528.443
  O      -86.405     -63.285    -529.348
  N      -84.994     -60.951    -527.931
  C      -84.950     -59.971    -527.045
  N      -86.116     -59.865    -526.335
  O      -81.674     -54.656    -525.258
  O      -80.540     -56.935    -525.007
  H      -88.489     -59.223    -523.282
  H      -80.904     -54.421    -524.708
  H      -88.651     -63.605    -528.392
  H      -84.102     -59.323    -526.878
  H      -87.346     -58.379    -525.610
  H      -86.967     -60.604    -523.935
  H      -90.384     -63.378    -526.825
  H      -84.594     -60.232    -523.712
  H      -90.508     -61.898    -525.946
  H      -85.236     -57.277    -523.199
  H      -82.875     -58.088    -522.885
  H      -82.848     -58.527    -524.613
  P      -83.997     -60.156    -521.145
  C      -83.714     -58.299    -519.348
  O      -83.163     -58.965    -520.474
  O      -83.059     -60.625    -522.357
  O      -84.353     -61.288    -520.238
  H      -82.415     -61.286    -522.046
  H      -83.040     -57.535    -519.020
  H      -83.867     -59.003    -518.557
  H      -84.650     -57.857    -519.618

 6  7  8  9  10  11  12  13  14  15  26  29  33  34 0
 6-311+G(2d,p)
 ****
 36  38  39  40  41 0
 6-311+G(2d,p)
 ****
 1  2  3  4  5  16  17  18  19  20  21  22  23  24  25 0
 3-21G
 ****
 27  28  30  31  32  35  37  42  43  44  45  46  47 0
 3-21G
 ****
 48  49 0
 3-21G
 ****


