%nproc=1
%NoSave
%Mem=1900MB
#P OB98/GEN NMR

erre ene a

0 1
  C       57.807     344.005    -637.305
  O       57.888     345.430    -637.353
  P       58.860     346.045    -638.475
  C       57.256     348.079    -638.695
  O       58.597     347.629    -638.545
  C       57.141     349.560    -638.344
  O       57.420     349.823    -636.955
  C       58.097     350.449    -639.131
  O       57.581     350.685    -640.428
  C       58.146     351.702    -638.266
  O       57.038     352.580    -638.557
  C       58.024     351.132    -636.843
  N       61.708     353.720    -634.504
  C       60.653     354.181    -635.279
  N       60.552     355.522    -635.419
  N       59.777     353.394    -635.845
  C       60.004     352.083    -635.612
  C       60.991     351.509    -634.847
  C       61.962     352.388    -634.228
  O       62.895     352.032    -633.523
  N       60.860     350.142    -634.794
  C       59.870     349.883    -635.632
  N       59.271     351.031    -636.104
  O       58.242     345.488    -639.846
  O       60.287     345.639    -638.314
  H       57.045     353.324    -637.926
  H       58.838     344.825    -640.236
  H       62.359     354.373    -634.102
  H       59.530     348.900    -635.903
  H       57.352     351.748    -636.221
  H       59.049     352.282    -638.447
  H       61.188     356.186    -635.010
  H       59.087     349.980    -639.175
  H       59.783     355.875    -635.975
  H       56.106     349.867    -638.540
  H       56.590     347.494    -638.053
  H       56.938     347.895    -639.727
  P       58.310     349.969    -641.669
  C       56.137     350.406    -643.018
  O       57.549     350.427    -643.000
  O       57.896     348.431    -641.494
  O       59.790     350.126    -641.687
  H       58.674     347.860    -641.634
  H       55.782     351.181    -643.703
  H       55.722     350.599    -642.025
  H       55.788     349.441    -643.381
  H       57.135     343.712    -636.525
  H       58.778     343.599    -637.111
  H       57.447     343.636    -638.243

 3  4  5  6  7  8  9  10  11  12  23  26  30  31 0
 6-311+G(2d,p)
 ****
 33  35  36  37  38 0
 6-311+G(2d,p)
 ****
 1  2  13  14  15  16  17  18  19  20  21  22  24  25 0
 3-21G
 ****
 27  28  29  32  34  39  40  41  42  43  44  45  46  47  48  49 0
 3-21G
 ****


