%nproc=1
%NoSave
%Mem=1900MB
#P OB98/GEN NMR

erre ene a

0 1
  C       73.874    -147.313     356.372
  O       73.823    -145.950     355.962
  P       74.957    -145.436     354.945
  C       76.682    -144.044     356.300
  O       76.303    -145.328     355.820
  C       76.174    -143.831     357.722
  O       76.646    -144.890     358.581
  C       76.643    -142.534     358.377
  O       75.851    -141.421     357.988
  C       76.412    -142.856     359.847
  O       75.022    -142.705     360.176
  C       76.812    -144.338     359.918
  N       79.850    -145.053     363.973
  C       78.520    -144.811     363.875
  N       77.786    -144.613     362.752
  C       78.566    -144.662     361.661
  C       79.935    -144.862     361.613
  C       80.591    -145.074     362.842
  N       81.933    -145.351     362.939
  N       80.391    -144.835     360.314
  C       79.313    -144.636     359.584
  N       78.181    -144.537     360.352
  O       74.549    -143.910     354.694
  O       75.063    -146.212     353.675
  H       74.521    -143.313     359.590
  H       74.922    -143.604     353.846
  H       77.972    -144.768     364.815
  H       79.296    -144.573     358.502
  H       76.166    -144.911     360.592
  H       76.971    -142.193     360.518
  H       77.711    -142.363     358.196
  H       75.077    -143.876     357.706
  H       76.246    -143.274     355.652
  H       82.288    -145.677     363.833
  H       82.439    -145.571     362.085
  H       77.769    -143.955     356.267
  P       76.434    -139.966     358.329
  C       75.469    -138.777     360.436
  O       76.294    -139.806     359.912
  O       75.320    -138.977     357.740
  O       77.789    -139.698     357.751
  H       75.710    -138.115     357.519
  H       75.241    -138.998     361.473
  H       74.529    -138.700     359.877
  H       76.004    -137.820     360.388
  H       73.065    -147.514     357.043
  H       74.804    -147.502     356.867
  H       73.792    -147.947     355.514

 3  4  5  6  7  8  9  10  11  12  22  25  29  30  31  32 0
 6-311+G(2d,p)
 ****
 33  36  37 0
 6-311+G(2d,p)
 ****
 1  2  13  14  15  16  17  18  19  20  21  23  24  26 0
 3-21G
 ****
 27  28  34  35  38  39  40  41  42  43  44  45  46  47  48 0
 3-21G
 ****


