%nproc=1
%NoSave
%Mem=1900MB
#P OB98/GEN NMR

erre ene a

0 1
  C      259.045     671.766    1193.289
  O      258.130     670.692    1193.389
  H      259.573     671.860    1194.239
  H      258.520     672.695    1193.081
  H      259.775     671.560    1192.497
  P      257.169     670.431    1192.134
  C      255.467     672.380    1192.410
  O      255.726     670.986    1192.536
  C      253.967     672.624    1192.401
  O      253.395     672.100    1191.186
  C      253.208     671.943    1193.534
  O      253.321     672.641    1194.767
  C      251.794     671.943    1192.991
  O      251.125     673.195    1193.261
  C      252.020     671.762    1191.473
  N      251.682     670.396    1191.047
  C      250.394     670.188    1190.594
  O      249.554     671.097    1190.511
  N      250.066     668.913    1190.234
  C      250.879     667.826    1190.339
  O      250.518     666.683    1190.062
  C      252.240     668.083    1190.859
  C      252.582     669.339    1191.183
  O      256.982     668.839    1192.130
  O      257.690     670.937    1190.826
  H      257.504     668.453    1191.399
  H      250.222     673.101    1192.886
  H      249.141     668.760    1189.892
  H      252.912     667.235    1190.974
  H      253.565     669.549    1191.592
  H      251.380     672.453    1190.907
  H      251.193     671.152    1193.438
  H      253.556     670.899    1193.643
  H      253.785     673.719    1192.431
  H      255.895     672.751    1191.471
  H      255.945     672.905    1193.245
  P      253.421     671.760    1196.119
  C      250.932     670.938    1196.264
  O      251.961     671.771    1196.763
  O      254.298     672.762    1197.029
  O      254.039     670.428    1195.890
  H      254.160     673.699    1196.775
  H      250.038     671.097    1196.831
  H      251.230     669.914    1196.348
  H      250.749     671.173    1195.236

 6  7  8  9  10  11  12  13  14  15  16  27  31  32  33  34  35 0
 6-311+G(2d,p)
 ****
 36  37 0
 6-311+G(2d,p)
 ****
 1  2  3  4  5  17  18  19  20  21  22  23  24  25 0
 3-21G
 ****
 26  28  29  30  38  39  40  41  42  43  44  45 0
 3-21G
 ****


