%nproc=1
%NoSave
%Mem=1900MB
#P OB98/GEN NMR

erre ene a

0 1
  C       11.283     270.040     311.661
  O       11.308     269.427     312.934
  H       11.452     269.272     310.903
  H       12.077     270.788     311.582
  H       10.311     270.505     311.477
  P       11.087     270.346     314.230
  C       12.564     272.105     315.429
  O       12.458     271.178     314.359
  C       13.964     272.059     316.031
  O       14.971     271.892     315.009
  C       14.384     273.320     316.778
  O       13.751     273.478     318.037
  C       15.874     273.063     316.907
  O       16.108     272.086     317.936
  C       16.199     272.494     315.507
  N       16.679     273.519     314.580
  C       18.016     273.910     314.717
  O       18.731     273.412     315.586
  N       18.510     274.886     313.884
  C       17.729     275.441     313.009
  N       18.268     276.406     312.215
  C       16.310     275.072     312.844
  C       15.857     274.116     313.649
  O       10.647     269.637     315.470
  O       10.067     271.482     313.748
  H       17.012     271.745     317.801
  H        9.889     272.073     314.518
  H       15.695     275.584     312.120
  H       14.822     273.796     313.593
  H       16.948     271.696     315.574
  H       16.444     273.956     317.173
  H       14.238     274.210     316.154
  H       14.013     271.172     316.678
  H       19.244     276.637     312.353
  H       11.805     271.855     316.176
  H       17.716     276.943     311.560
  H       12.380     273.121     315.062
  P       13.410     274.980     318.496
  C       14.780     277.203     318.498
  O       14.795     275.784     318.463
  O       13.090     274.817     320.053
  O       12.296     275.638     317.743
  H       12.124     274.782     320.205
  H       15.784     277.571     318.469
  H       14.305     277.533     319.399
  H       14.239     277.575     317.653

 6  7  8  9  10  11  12  13  14  15  16  26  30  31  32  33  35 0
 6-311+G(2d,p)
 ****
 37  38 0
 6-311+G(2d,p)
 ****
 1  2  3  4  5  17  18  19  20  21  22  23  24  25 0
 3-21G
 ****
 27  28  29  34  36  39  40  41  42  43  44  45  46 0
 3-21G
 ****


