%nproc=1
%NoSave
%Mem=1900MB
#P OB98/GEN NMR

erre ene a

0 1
  C     -323.620     643.432     231.952
  O     -324.473     644.191     232.787
  H     -323.887     643.625     230.910
  H     -323.739     642.365     232.156
  H     -322.580     643.732     232.109
  P     -324.266     644.024     234.367
  C     -323.603     646.485     234.818
  O     -323.168     645.132     234.748
  C     -323.844     646.894     236.269
  O     -322.777     646.416     237.104
  C     -323.926     648.398     236.491
  O     -325.231     648.874     236.200
  C     -323.621     648.487     237.980
  O     -324.811     648.189     238.736
  C     -322.578     647.373     238.181
  N     -318.410     648.220     241.050
  C     -319.688     647.957     241.385
  N     -320.758     647.798     240.574
  C     -320.398     647.923     239.285
  C     -319.132     648.194     238.789
  C     -318.099     648.340     239.734
  N     -316.795     648.609     239.387
  N     -319.146     648.255     237.410
  C     -320.385     647.968     237.081
  N     -321.194     647.795     238.179
  O     -323.990     642.636     234.840
  O     -325.622     644.673     234.924
  H     -325.011     647.247     238.583
  H     -325.851     645.469     234.414
  H     -319.886     647.868     242.451
  H     -320.751     647.855     236.063
  H     -322.738     646.835     239.123
  H     -323.291     649.481     238.285
  H     -323.152     648.935     235.933
  H     -324.770     646.399     236.605
  H     -324.522     646.620     234.235
  H     -316.171     648.886     240.128
  H     -316.599     648.823     238.420
  H     -322.821     647.109     234.372
  P     -325.498     650.429     235.905
  C     -325.515     650.142     233.349
  O     -324.831     650.690     234.470
  O     -325.075     651.347     236.994
  O     -327.066     650.506     235.596
  H     -327.372     651.428     235.660
  H     -324.980     650.379     232.454
  H     -326.500     650.555     233.295
  H     -325.579     649.079     233.455

 6  7  8  9  10  11  12  13  14  15  25  28  32  33  34  35 0
 6-311+G(2d,p)
 ****
 36  39  40 0
 6-311+G(2d,p)
 ****
 1  2  3  4  5  16  17  18  19  20  21  22  23  24 0
 3-21G
 ****
 26  27  29  30  31  37  38  41  42  43  44  45  46  47 0
 3-21G
 ****
 48 0
 3-21G
 ****


