%nproc=1
%NoSave
%Mem=1900MB
#P OB98/GEN NMR

erre ene a

0 1
  C      -17.540    -766.262     -64.655
  O      -16.912    -767.505     -64.400
  H      -17.642    -766.139     -65.738
  H      -16.923    -765.451     -64.267
  H      -18.534    -766.225     -64.205
  P      -16.886    -768.060     -62.897
  C      -14.944    -766.576     -62.070
  O      -16.331    -766.870     -61.975
  C      -14.636    -765.200     -61.470
  O      -14.906    -765.258     -60.028
  C      -13.172    -764.749     -61.639
  O      -13.173    -763.320     -61.752
  C      -12.571    -765.193     -60.318
  O      -11.309    -764.616     -60.098
  C      -13.705    -764.799     -59.369
  N      -13.581    -765.377     -58.040
  C      -12.561    -764.896     -57.221
  O      -11.786    -763.999     -57.552
  N      -12.455    -765.491     -55.995
  C      -13.241    -766.502     -55.520
  O      -13.109    -766.984     -54.398
  C      -14.281    -766.991     -56.436
  C      -14.401    -766.415     -57.638
  O      -16.207    -769.380     -62.705
  O      -18.434    -768.137     -62.490
  H      -18.760    -769.045     -62.608
  H      -10.970    -764.859     -59.212
  H      -11.719    -765.149     -55.387
  H      -14.907    -767.808     -56.100
  H      -15.155    -766.748     -58.343
  H      -13.782    -763.714     -59.285
  H      -12.425    -766.277     -60.320
  H      -12.692    -765.185     -62.524
  H      -15.331    -764.465     -61.892
  H      -14.666    -766.582     -63.132
  H      -14.374    -767.349     -61.549
  P      -12.733    -762.540     -63.081
  C      -10.269    -761.818     -62.796
  O      -11.169    -762.774     -63.345
  O      -13.116    -761.094     -63.090
  O      -13.445    -763.315     -64.292
  H      -13.705    -762.671     -64.979
  H       -9.264    -762.090     -63.044
  H      -10.380    -761.794     -61.732
  H      -10.486    -760.851     -63.199

 6  7  8  9  10  11  12  13  14  15  16  27  31  32  33  34  35 0
 6-311+G(2d,p)
 ****
 36  37 0
 6-311+G(2d,p)
 ****
 1  2  3  4  5  17  18  19  20  21  22  23  24  25 0
 3-21G
 ****
 26  28  29  30  38  39  40  41  42  43  44  45 0
 3-21G
 ****


