%nproc=1
%NoSave
%Mem=1900MB
#P OB98/GEN NMR

erre ene a

0 1
  C        1.321      98.447    -128.999
  O        1.489      99.699    -128.362
  H        0.751      97.792    -128.334
  H        2.296      97.986    -129.188
  H        0.774      98.559    -129.938
  P        2.166     100.901    -129.187
  C        4.085     100.954    -130.913
  O        3.578     100.362    -129.724
  C        5.615     100.898    -130.911
  O        6.140     101.694    -129.826
  C        6.177      99.497    -130.710
  O        6.078      98.730    -131.892
  C        7.599      99.819    -130.275
  O        8.426     100.116    -131.410
  C        7.380     101.080    -129.404
  N        7.364     100.786    -127.971
  C        8.574     100.936    -127.294
  O        9.625     101.263    -127.851
  N        8.542     100.666    -125.951
  C        7.480     100.163    -125.259
  O        7.527      99.853    -124.073
  C        6.234     100.000    -126.028
  C        6.235     100.316    -127.329
  O        2.216     102.217    -128.488
  O        1.285     100.981    -130.524
  H        8.256      99.412    -132.064
  H        0.694     101.756    -130.475
  H        9.409     100.757    -125.446
  H        5.366      99.616    -125.511
  H        5.331     100.198    -127.914
  H        8.174     101.815    -129.598
  H        8.066      98.992    -129.741
  H        5.658      98.998    -129.879
  H        5.974     101.336    -131.855
  H        3.760     102.002    -130.954
  H        3.678     100.422    -131.778
  P        5.822      97.151    -131.802
  C        7.180      95.032    -131.263
  O        7.222      96.446    -131.457
  O        5.084      96.556    -132.960
  O        4.982      96.976    -130.450
  H        4.112      96.580    -130.653
  H        8.163      94.673    -131.040
  H        6.822      94.560    -132.154
  H        6.524      94.803    -130.449

 6  7  8  9  10  11  12  13  14  15  16  26  31  32  33  34  35 0
 6-311+G(2d,p)
 ****
 36  37 0
 6-311+G(2d,p)
 ****
 1  2  3  4  5  17  18  19  20  21  22  23  24  25 0
 3-21G
 ****
 27  28  29  30  38  39  40  41  42  43  44  45 0
 3-21G
 ****


