%nproc=1
%NoSave
%Mem=1900MB
#P OB98/GEN NMR

erre ene a

0 1
  C     -270.214     115.378    -736.640
  O     -270.109     116.203    -737.785
  P     -270.023     117.794    -737.641
  C     -272.510     118.366    -737.441
  O     -271.269     118.273    -736.751
  C     -273.614     118.900    -736.526
  O     -274.803     119.144    -737.319
  C     -274.013     117.957    -735.376
  O     -274.362     118.787    -734.261
  C     -275.252     117.273    -735.913
  O     -276.066     116.720    -734.894
  C     -275.886     118.432    -736.672
  N     -280.850     118.017    -737.840
  C     -280.220     118.459    -736.731
  N     -278.899     118.519    -736.488
  C     -278.196     118.053    -737.541
  C     -278.707     117.538    -738.723
  C     -280.111     117.542    -738.868
  N     -280.764     117.130    -740.003
  N     -277.674     117.103    -739.544
  C     -276.571     117.365    -738.856
  N     -276.841     117.981    -737.674
  O     -269.845     118.535    -738.925
  O     -268.767     118.023    -736.673
  H     -276.403     117.441    -734.336
  H     -268.006     118.352    -737.186
  H     -280.870     118.826    -735.929
  H     -275.569     117.115    -739.173
  H     -276.404     119.134    -736.009
  H     -274.965     116.467    -736.593
  H     -273.218     117.253    -735.092
  H     -273.286     119.867    -736.128
  H     -272.779     117.362    -737.779
  H     -281.763     117.304    -740.046
  H     -280.237     117.034    -740.866
  H     -272.401     119.012    -738.315
  P     -273.604     118.615    -732.858
  C     -275.510     117.495    -731.566
  O     -274.235     117.315    -732.157
  O     -273.543     119.836    -732.009
  O     -272.140     118.113    -733.285
  H     -271.516     118.245    -732.540
  H     -275.390     117.966    -730.576
  H     -275.987     116.520    -731.443
  H     -276.151     118.131    -732.183
  H     -270.259     114.353    -736.942
  H     -271.102     115.630    -736.099
  H     -269.360     115.528    -736.013

 3  4  5  6  7  8  9  10  11  12  22  25  29  30  31  32 0
 6-311+G(2d,p)
 ****
 33  36  37 0
 6-311+G(2d,p)
 ****
 1  2  13  14  15  16  17  18  19  20  21  23  24  26 0
 3-21G
 ****
 27  28  34  35  38  39  40  41  42  43  44  45  46  47  48 0
 3-21G
 ****


