%nproc=1
%NoSave
%Mem=1900MB
#P OB98/GEN NMR

erre ene a

0 1
  C      181.264    -355.649     413.988
  O      181.738    -355.346     415.289
  P      181.030    -355.968     416.582
  C      179.640    -354.280     417.962
  O      179.691    -355.101     416.790
  C      178.325    -354.493     418.715
  O      177.266    -353.707     418.125
  C      177.828    -355.932     418.699
  O      178.555    -356.726     419.620
  C      176.355    -355.738     419.060
  O      176.179    -355.607     420.479
  C      176.027    -354.413     418.345
  N      175.290    -354.616     417.096
  C      173.959    -355.036     417.232
  O      173.486    -355.240     418.357
  N      173.223    -355.258     416.086
  C      173.769    -355.098     414.933
  N      172.989    -355.345     413.838
  C      175.174    -354.688     414.744
  C      175.873    -354.470     415.861
  O      181.895    -356.106     417.788
  O      180.456    -357.370     416.043
  H      176.752    -354.863     420.756
  H      181.185    -358.033     415.924
  H      175.591    -354.575     413.750
  H      176.914    -354.157     415.816
  H      175.418    -353.766     418.995
  H      175.734    -356.581     418.735
  H      177.906    -356.347     417.685
  H      178.466    -354.151     419.750
  H      172.037    -355.653     414.012
  H      179.713    -353.236     417.656
  H      173.330    -355.286     412.880
  H      180.494    -354.512     418.601
  P      178.700    -358.304     419.381
  C      176.693    -358.597     420.958
  O      177.282    -358.979     419.730
  O      179.894    -358.945     420.019
  O      178.776    -358.434     417.781
  H      179.481    -359.060     417.546
  H      175.626    -358.848     420.926
  H      176.805    -357.527     421.132
  H      177.163    -359.147     421.776
  H      181.864    -355.141     413.262
  H      180.247    -355.330     413.896
  H      181.323    -356.705     413.824

 3  4  5  6  7  8  9  10  11  12  13  23  27  28  29  30  32 0
 6-311+G(2d,p)
 ****
 34  35 0
 6-311+G(2d,p)
 ****
 1  2  14  15  16  17  18  19  20  21  22  24  25  26 0
 3-21G
 ****
 31  33  36  37  38  39  40  41  42  43  44  45  46 0
 3-21G
 ****


