%nproc=1
%NoSave
%Mem=1900MB
#P OB98/GEN NMR

erre ene a

0 1
  C      616.348    -406.799    -447.525
  O      617.120    -405.828    -448.209
  H      615.397    -406.349    -447.234
  H      616.868    -407.138    -446.624
  H      616.145    -407.653    -448.178
  P      618.570    -406.251    -448.738
  C      619.644    -404.729    -446.948
  O      619.570    -406.033    -447.505
  C      620.721    -404.671    -445.872
  O      620.226    -405.244    -444.642
  C      621.993    -405.435    -446.229
  O      622.819    -404.660    -447.078
  C      622.585    -405.644    -444.843
  O      623.192    -404.421    -444.388
  C      621.326    -405.958    -444.014
  N      620.972    -410.017    -440.999
  C      621.427    -408.745    -440.723
  N      621.903    -408.538    -439.469
  N      621.441    -407.773    -441.593
  C      621.010    -408.147    -442.816
  C      620.548    -409.379    -443.216
  C      620.485    -410.431    -442.226
  O      620.066    -411.573    -442.431
  N      620.257    -409.399    -444.556
  C      620.507    -408.166    -444.956
  N      620.978    -407.371    -443.939
  O      619.031    -405.598    -450.006
  O      618.489    -407.844    -448.874
  H      624.002    -404.298    -444.912
  H      618.225    -408.107    -449.775
  H      621.006    -410.731    -440.283
  H      620.363    -407.800    -445.969
  H      621.410    -405.592    -442.981
  H      623.353    -406.421    -444.816
  H      622.169    -409.303    -438.868
  H      621.769    -406.421    -446.659
  H      622.284    -407.627    -439.258
  H      620.940    -403.616    -445.670
  H      618.664    -404.496    -446.523
  H      619.868    -403.993    -447.731
  P      624.131    -405.287    -447.761
  C      625.643    -403.530    -446.598
  O      625.328    -404.912    -446.762
  O      624.357    -404.886    -449.174
  O      623.981    -406.862    -447.547
  H      623.488    -407.310    -448.273
  H      626.455    -403.429    -445.909
  H      624.787    -403.012    -446.220
  H      625.923    -403.114    -447.543

 6  7  8  9  10  11  12  13  14  15  26  29  33  34 0
 6-311+G(2d,p)
 ****
 36  38  39  40  41 0
 6-311+G(2d,p)
 ****
 1  2  3  4  5  16  17  18  19  20  21  22  23  24  25 0
 3-21G
 ****
 27  28  30  31  32  35  37  42  43  44  45  46  47 0
 3-21G
 ****
 48  49 0
 3-21G
 ****


