%nproc=1
%NoSave
%Mem=1900MB
#P OB98/GEN NMR

erre ene a

0 1
  C      -42.160    -466.643    -183.060
  O      -42.997    -465.961    -182.138
  P      -43.251    -466.529    -180.655
  C      -44.988    -468.189    -179.691
  O      -44.283    -467.744    -180.838
  C      -46.159    -469.084    -180.098
  O      -47.241    -468.240    -180.576
  C      -45.828    -470.089    -181.212
  O      -46.584    -471.273    -180.952
  C      -46.342    -469.394    -182.461
  O      -46.599    -470.300    -183.524
  C      -47.586    -468.686    -181.905
  N      -48.014    -467.570    -182.741
  C      -48.591    -467.866    -183.979
  O      -48.708    -469.033    -184.354
  N      -49.022    -466.833    -184.765
  C      -48.823    -465.604    -184.390
  N      -49.325    -464.614    -185.182
  C      -48.122    -465.248    -183.147
  C      -47.770    -466.266    -182.367
  O      -43.664    -465.505    -179.653
  O      -41.895    -467.297    -180.290
  H      -47.357    -470.856    -183.274
  H      -41.204    -466.699    -179.917
  H      -47.952    -464.211    -182.892
  H      -47.272    -466.102    -181.426
  H      -48.407    -469.401    -181.795
  H      -45.596    -468.668    -182.809
  H      -44.764    -470.338    -181.253
  H      -46.521    -469.607    -179.204
  H      -49.947    -464.903    -185.931
  H      -45.378    -467.314    -179.166
  H      -49.496    -463.685    -184.810
  H      -44.304    -468.716    -179.019
  P      -46.195    -472.616    -181.746
  C      -46.718    -473.604    -184.089
  O      -46.702    -472.463    -183.257
  O      -47.251    -473.668    -181.142
  O      -44.806    -473.125    -181.546
  H      -46.879    -474.568    -181.223
  H      -47.097    -473.316    -185.072
  H      -47.375    -474.377    -183.676
  H      -45.705    -474.003    -184.208
  H      -42.127    -466.100    -183.981
  H      -42.550    -467.623    -183.238
  H      -41.172    -466.720    -182.656

 3  4  5  6  7  8  9  10  11  12  13  23  27  28  29  30  32 0
 6-311+G(2d,p)
 ****
 34  35 0
 6-311+G(2d,p)
 ****
 1  2  14  15  16  17  18  19  20  21  22  24  25  26 0
 3-21G
 ****
 31  33  36  37  38  39  40  41  42  43  44  45  46 0
 3-21G
 ****


