%nproc=1
%NoSave
%Mem=1900MB
#P OB98/GEN NMR

erre ene a

0 1
  C      133.152    -265.616     132.835
  O      133.390    -267.026     132.859
  P      133.116    -267.846     134.206
  C      135.547    -268.617     134.599
  O      134.461    -267.849     135.098
  C      136.681    -268.771     135.616
  O      137.696    -269.679     135.134
  C      137.384    -267.455     135.986
  O      137.735    -267.535     137.380
  C      138.628    -267.499     135.122
  O      139.643    -266.609     135.578
  C      138.966    -268.995     135.202
  N      139.875    -269.419     134.132
  C      141.229    -269.562     134.468
  O      141.619    -269.222     135.589
  N      142.082    -270.043     133.515
  C      141.661    -270.213     132.303
  N      142.534    -270.720     131.390
  C      140.277    -269.917     131.876
  C      139.445    -269.551     132.846
  O      132.487    -269.191     134.025
  O      132.154    -266.866     135.029
  H      139.782    -266.756     136.537
  H      131.522    -267.407     135.543
  H      139.998    -269.996     130.835
  H      138.412    -269.303     132.636
  H      139.422    -269.243     136.170
  H      138.373    -267.214     134.090
  H      136.762    -266.567     135.827
  H      136.245    -269.218     136.522
  H      143.492    -270.901     131.691
  H      135.945    -268.133     133.696
  H      142.272    -270.931     130.429
  H      135.167    -269.592     134.267
  P      136.890    -266.683     138.441
  C      138.100    -264.382     138.333
  O      136.955    -265.135     138.002
  O      137.858    -266.698     139.723
  O      135.551    -267.221     138.815
  H      137.322    -266.564     140.527
  H      138.116    -263.466     137.728
  H      139.024    -264.936     138.147
  H      138.066    -264.102     139.396
  H      133.385    -265.231     131.864
  H      133.770    -265.138     133.566
  H      132.123    -265.424     133.057

 3  4  5  6  7  8  9  10  11  12  13  23  27  28  29  30  32 0
 6-311+G(2d,p)
 ****
 34  35 0
 6-311+G(2d,p)
 ****
 1  2  14  15  16  17  18  19  20  21  22  24  25  26 0
 3-21G
 ****
 31  33  36  37  38  39  40  41  42  43  44  45  46 0
 3-21G
 ****


