%nproc=1
%NoSave
%Mem=1900MB
#P OB98/GEN NMR

erre ene a

0 1
  C     -265.406     123.215    -135.186
  O     -265.153     123.058    -136.565
  H     -265.396     124.285    -134.953
  H     -264.632     122.724    -134.592
  H     -266.388     122.812    -134.929
  P     -264.923     121.578    -137.151
  C     -263.564     122.362    -139.183
  O     -264.788     121.785    -138.747
  C     -263.805     123.551    -140.115
  O     -264.289     123.075    -141.400
  C     -264.829     124.560    -139.580
  O     -264.318     125.887    -139.734
  C     -266.041     124.355    -140.476
  O     -266.874     125.509    -140.529
  C     -265.368     123.946    -141.793
  N     -266.284     123.290    -142.721
  C     -266.631     124.011    -143.866
  O     -266.204     125.155    -144.038
  N     -267.490     123.440    -144.775
  C     -267.993     122.270    -144.537
  N     -268.842     121.763    -145.467
  C     -267.688     121.492    -143.314
  C     -266.828     122.054    -142.463
  O     -265.942     120.576    -136.731
  O     -263.432     121.201    -136.712
  H     -267.563     125.365    -141.216
  H     -263.318     120.218    -136.745
  H     -268.144     120.527    -143.154
  H     -266.542     121.552    -141.544
  H     -264.933     124.822    -142.296
  H     -266.642     123.520    -140.092
  H     -265.078     124.409    -138.533
  H     -262.840     124.034    -140.318
  H     -269.022     122.326    -146.290
  H     -262.975     121.591    -139.691
  H     -269.300     120.864    -145.382
  H     -263.015     122.708    -138.296
  P     -263.558     126.504    -138.461
  C     -265.367     128.075    -137.469
  O     -264.148     127.974    -138.195
  O     -262.080     126.777    -139.011
  O     -263.547     125.599    -137.275
  H     -261.477     126.070    -138.724
  H     -265.638     129.105    -137.368
  H     -265.241     127.643    -136.498
  H     -266.139     127.553    -137.994

 6  7  8  9  10  11  12  13  14  15  16  26  30  31  32  33  35 0
 6-311+G(2d,p)
 ****
 37  38 0
 6-311+G(2d,p)
 ****
 1  2  3  4  5  17  18  19  20  21  22  23  24  25 0
 3-21G
 ****
 27  28  29  34  36  39  40  41  42  43  44  45  46 0
 3-21G
 ****


