%nproc=1
%NoSave
%Mem=1900MB
#P OB98/GEN NMR

erre ene a

0 1
  C      340.743     314.341     654.463
  O      341.303     315.647     654.340
  P      341.948     316.082     652.935
  C      340.766     315.386     650.753
  O      340.758     316.267     651.879
  C      339.591     315.694     649.818
  O      338.326     315.594     650.501
  C      339.632     317.107     649.251
  O      340.623     317.214     648.245
  C      338.195     317.268     648.769
  O      338.012     316.668     647.482
  C      337.402     316.486     649.841
  N      336.714     317.348     650.790
  C      335.922     318.361     650.242
  O      335.864     318.512     649.022
  N      335.226     319.182     651.096
  C      335.319     319.014     652.377
  N      334.608     319.855     653.171
  C      336.156     317.966     652.998
  C      336.825     317.185     652.156
  O      343.097     315.256     652.471
  O      342.406     317.601     653.214
  H      337.104     316.891     647.200
  H      343.181     317.798     652.654
  H      336.199     317.860     654.075
  H      337.468     316.391     652.526
  H      336.645     315.852     649.360
  H      337.918     318.324     648.673
  H      339.835     317.822     650.054
  H      339.607     314.958     649.001
  H      334.050     320.571     652.722
  H      340.702     314.352     651.103
  H      334.576     319.772     654.175
  H      341.725     315.488     650.232
  P      341.911     318.116     648.566
  C      344.020     317.842     650.050
  O      342.955     317.199     649.357
  O      341.369     319.130     649.689
  O      342.466     318.860     647.390
  H      341.810     319.991     649.590
  H      344.430     317.135     650.780
  H      343.672     318.727     650.588
  H      344.802     318.114     649.349
  H      340.358     314.210     655.453
  H      341.500     313.609     654.275
  H      339.950     314.225     653.754

 3  4  5  6  7  8  9  10  11  12  13  23  27  28  29  30  32 0
 6-311+G(2d,p)
 ****
 34  35 0
 6-311+G(2d,p)
 ****
 1  2  14  15  16  17  18  19  20  21  22  24  25  26 0
 3-21G
 ****
 31  33  36  37  38  39  40  41  42  43  44  45  46 0
 3-21G
 ****


