%nproc=1
%NoSave
%Mem=1900MB
#P OB98/GEN NMR

erre ene a

0 1
  C     -516.103     168.959     322.658
  O     -515.606     168.666     321.350
  P     -514.564     169.692     320.684
  C     -514.689     170.264     318.104
  O     -514.379     169.349     319.132
  C     -514.471     169.579     316.740
  O     -513.192     168.913     316.707
  C     -515.524     168.516     316.418
  O     -516.675     169.078     315.810
  C     -514.758     167.568     315.519
  O     -514.661     168.111     314.188
  C     -513.375     167.562     316.203
  N     -513.151     166.608     317.320
  C     -512.168     165.626     317.199
  O     -511.448     165.477     316.214
  N     -512.016     164.791     318.282
  C     -512.612     164.944     319.508
  O     -512.389     164.209     320.461
  C     -513.516     166.089     319.624
  C     -513.754     166.838     318.547
  O     -513.162     169.285     321.331
  O     -514.888     171.139     320.909
  H     -514.241     167.421     313.632
  H     -512.815     170.016     321.882
  H     -511.361     164.032     318.193
  H     -513.973     166.274     320.588
  H     -514.432     167.690     318.630
  H     -512.576     167.375     315.469
  H     -515.270     166.608     315.420
  H     -515.796     167.967     317.331
  H     -514.478     170.349     315.956
  H     -514.066     171.153     318.163
  H     -515.729     170.585     318.196
  P     -518.033     169.213     316.641
  C     -519.380     169.018     314.459
  O     -519.121     169.804     315.605
  O     -517.943     169.930     317.950
  O     -518.521     167.689     316.827
  H     -518.236     167.332     317.691
  H     -520.233     169.451     313.929
  H     -519.611     167.992     314.746
  H     -518.511     169.032     313.798
  H     -516.781     168.189     322.963
  H     -516.614     169.899     322.643
  H     -515.286     169.008     323.347

 3  4  5  6  7  8  9  10  11  12  13  23  28  29  30  31  32 0
 6-311+G(2d,p)
 ****
 33  34 0
 6-311+G(2d,p)
 ****
 1  2  14  15  16  17  18  19  20  21  22  24  25  26  27 0
 3-21G
 ****
 35  36  37  38  39  40  41  42  43  44  45 0
 3-21G
 ****


