%nproc=1
%NoSave
%Mem=1900MB
#P OB98/GEN NMR

erre ene a

0 1
  C      -69.800     109.665      54.542
  O      -68.924     110.688      54.966
  P      -69.353     111.749      56.089
  C      -71.084     113.644      56.249
  O      -70.563     112.592      55.452
  C      -72.031     114.536      55.446
  O      -71.268     115.312      54.482
  C      -73.119     113.778      54.672
  O      -74.274     114.623      54.672
  C      -72.526     113.689      53.279
  O      -73.504     113.423      52.282
  C      -71.824     115.049      53.176
  N      -70.809     115.063      52.130
  C      -71.231     115.421      50.848
  O      -72.426     115.631      50.624
  N      -70.306     115.480      49.837
  C      -69.085     115.110      50.067
  N      -68.211     115.194      49.029
  C      -68.626     114.605      51.375
  C      -69.527     114.622      52.355
  O      -68.240     112.570      56.646
  O      -70.097     110.856      57.187
  H      -73.664     112.455      52.258
  H      -69.437     110.365      57.738
  H      -67.614     114.255      51.503
  H      -69.283     114.272      53.347
  H      -72.553     115.844      52.963
  H      -71.788     112.878      53.245
  H      -73.355     112.799      55.093
  H      -72.495     115.247      56.140
  H      -68.564     115.560      48.154
  H      -70.245     114.251      56.600
  H      -67.223     115.010      49.122
  H      -71.589     113.232      57.129
  P      -75.726     114.047      54.313
  C      -77.128     113.727      52.197
  O      -75.949     114.284      52.747
  O      -76.834     114.538      55.187
  O      -75.560     112.456      54.421
  H      -76.441     112.041      54.468
  H      -77.314     114.179      51.220
  H      -77.990     113.913      52.845
  H      -76.998     112.648      52.071
  H      -69.320     109.072      53.792
  H      -70.689     110.102      54.137
  H      -70.055     109.046      55.376

 3  4  5  6  7  8  9  10  11  12  13  23  27  28  29  30  32 0
 6-311+G(2d,p)
 ****
 34  35 0
 6-311+G(2d,p)
 ****
 1  2  14  15  16  17  18  19  20  21  22  24  25  26 0
 3-21G
 ****
 31  33  36  37  38  39  40  41  42  43  44  45  46 0
 3-21G
 ****


