%nproc=1
%NoSave
%Mem=1900MB
#P OB98/GEN NMR

erre ene a

0 1
  C      219.929    -128.887     131.174
  O      219.394    -129.695     130.111
  P      220.295    -129.965     128.807
  C      220.544    -129.035     126.375
  O      219.940    -128.899     127.654
  C      220.626    -127.680     125.652
  O      219.289    -127.244     125.233
  C      221.221    -126.543     126.493
  O      221.926    -125.671     125.600
  C      219.977    -125.844     127.027
  O      220.226    -124.521     127.471
  C      219.070    -125.941     125.805
  N      217.644    -125.736     126.095
  C      217.036    -124.579     125.607
  O      217.628    -123.692     124.991
  N      215.698    -124.467     125.879
  C      214.933    -125.336     126.597
  O      213.748    -125.160     126.830
  C      215.642    -126.521     127.115
  C      216.941    -126.663     126.843
  O      219.655    -131.316     128.227
  O      221.758    -130.156     129.061
  H      219.374    -124.147     127.762
  H      220.365    -131.939     127.989
  H      215.229    -123.647     125.512
  H      215.071    -127.239     127.697
  H      217.480    -127.536     127.209
  H      219.390    -125.206     125.052
  H      219.589    -126.415     127.881
  H      221.892    -126.899     127.287
  H      221.213    -127.819     124.734
  H      219.949    -129.725     125.765
  H      221.544    -129.465     126.494
  P      223.538    -125.686     125.631
  C      225.273    -123.776     126.088
  O      224.008    -124.330     126.352
  O      223.856    -125.402     124.083
  O      224.132    -126.949     126.144
  H      223.317    -124.693     123.708
  H      225.529    -123.838     125.025
  H      226.035    -124.303     126.686
  H      225.269    -122.720     126.380
  H      219.207    -128.807     131.960
  H      220.158    -127.911     130.800
  H      220.820    -129.341     131.554

 3  4  5  6  7  8  9  10  11  12  13  23  28  29  30  31  32 0
 6-311+G(2d,p)
 ****
 33  34 0
 6-311+G(2d,p)
 ****
 1  2  14  15  16  17  18  19  20  21  22  24  25  26 0
 3-21G
 ****
 27  35  36  37  38  39  40  41  42  43  44  45 0
 3-21G
 ****


