%nproc=1
%NoSave
%Mem=1900MB
#P OB98/GEN NMR

erre ene a

0 1
  C       55.870      86.545      -5.442
  O       55.342      87.662      -6.137
  P       53.760      87.839      -6.365
  C       51.737      87.871      -4.755
  O       53.087      87.491      -4.952
  C       51.030      86.871      -3.838
  O       50.924      85.601      -4.533
  C       51.751      86.613      -2.509
  O       50.744      86.396      -1.514
  C       52.516      85.332      -2.782
  O       52.859      84.635      -1.594
  C       51.529      84.596      -3.695
  N       52.173      83.562      -4.497
  C       52.908      82.584      -3.826
  O       53.029      82.611      -2.602
  N       53.499      81.587      -4.562
  C       53.435      81.612      -5.857
  N       53.984      80.569      -6.537
  C       52.759      82.686      -6.609
  C       52.139      83.603      -5.872
  O       53.207      87.082      -7.523
  O       53.549      89.419      -6.453
  H       52.034      84.403      -1.126
  H       53.698      89.777      -7.364
  H       52.756      82.679      -7.691
  H       51.598      84.415      -6.338
  H       50.722      84.154      -3.100
  H       53.444      85.568      -3.314
  H       52.388      87.448      -2.203
  H       50.010      87.230      -3.656
  H       54.282      79.772      -5.984
  H       51.234      87.876      -5.726
  H       53.697      80.355      -7.485
  H       51.695      88.884      -4.340
  P       51.111      86.703       0.019
  C       51.641      88.844       1.384
  O       51.602      88.224       0.117
  O       52.490      85.896       0.189
  O       50.125      86.243       1.043
  H       52.607      85.664       1.129
  H       52.005      89.868       1.260
  H       52.325      88.312       2.051
  H       50.643      88.879       1.826
  H       56.937      86.621      -5.403
  H       55.595      85.645      -5.952
  H       55.477      86.526      -4.447

 3  4  5  6  7  8  9  10  11  12  13  23  27  28  29  30  32 0
 6-311+G(2d,p)
 ****
 34  35 0
 6-311+G(2d,p)
 ****
 1  2  14  15  16  17  18  19  20  21  22  24  25  26 0
 3-21G
 ****
 31  33  36  37  38  39  40  41  42  43  44  45  46 0
 3-21G
 ****


