%nproc=1
%NoSave
%Mem=1900MB
#P OB98/GEN NMR

erre ene a

0 1
  C     -178.539     947.761     404.321
  O     -179.467     947.121     405.182
  P     -179.385     947.474     406.747
  C     -181.838     946.768     407.224
  O     -180.462     946.514     407.461
  C     -182.696     945.882     408.130
  O     -182.642     944.510     407.687
  C     -182.279     945.859     409.586
  O     -182.758     946.977     410.300
  C     -182.959     944.587     410.069
  O     -184.347     944.842     410.307
  C     -182.790     943.652     408.850
  N     -181.306     938.837     409.649
  C     -182.517     939.404     409.679
  N     -182.832     940.714     409.469
  C     -181.722     941.434     409.239
  C     -180.421     940.994     409.199
  C     -180.218     939.617     409.416
  N     -178.981     939.014     409.354
  N     -179.548     942.033     408.942
  C     -180.321     943.078     408.804
  N     -181.638     942.786     408.960
  O     -180.063     948.924     406.818
  O     -178.017     947.477     407.324
  H     -184.400     945.468     411.052
  H     -179.771     949.392     407.623
  H     -183.355     938.759     409.899
  H     -179.969     944.087     408.568
  H     -183.678     943.027     408.693
  H     -182.534     944.208     410.996
  H     -181.188     945.762     409.684
  H     -183.743     946.222     408.032
  H     -182.075     946.541     406.179
  H     -178.940     938.012     409.325
  H     -178.204     939.559     408.978
  H     -182.051     947.820     407.416
  P     -181.904     947.450     411.583
  C     -183.310     949.623     411.867
  O     -182.898     948.400     412.431
  O     -180.851     948.476     410.952
  O     -181.253     946.329     412.322
  H     -180.045     948.514     411.516
  H     -184.198     949.972     412.412
  H     -183.583     949.507     410.815
  H     -182.508     950.363     411.959
  H     -178.704     947.437     403.315
  H     -177.543     947.507     404.618
  H     -178.670     948.821     404.381

 3  4  5  6  7  8  9  10  11  12  22  25  29  30  31  32 0
 6-311+G(2d,p)
 ****
 33  36  37 0
 6-311+G(2d,p)
 ****
 1  2  13  14  15  16  17  18  19  20  21  23  24  26 0
 3-21G
 ****
 27  28  34  35  38  39  40  41  42  43  44  45  46  47  48 0
 3-21G
 ****


