%nproc=1
%NoSave
%Mem=1900MB
#P OB98/GEN NMR

erre ene a

0 1
  C      -99.522     109.553     165.966
  O      -99.298     108.430     166.822
  P      -99.415     106.947     166.215
  C      -97.223     106.319     165.027
  O      -97.964     106.261     166.240
  C      -95.800     105.767     165.183
  O      -94.914     106.771     165.754
  C      -95.698     104.517     166.069
  O      -94.672     103.686     165.510
  C      -95.251     105.098     167.399
  O      -94.694     104.118     168.263
  C      -94.289     106.188     166.915
  N      -94.014     107.186     167.937
  C      -93.058     106.868     168.901
  O      -92.560     105.740     168.929
  N      -92.714     107.821     169.832
  C      -93.377     108.933     169.879
  N      -92.996     109.864     170.799
  C      -94.518     109.233     168.990
  C      -94.761     108.334     168.038
  O     -100.137     106.848     164.909
  O     -100.202     106.154     167.367
  H      -94.215     104.566     168.991
  H     -100.785     105.487     166.948
  H      -95.094     110.136     169.121
  H      -95.570     108.462     167.335
  H      -93.335     105.749     166.588
  H      -96.112     105.546     167.912
  H      -96.632     103.948     166.127
  H      -95.416     105.532     164.179
  H      -92.227     109.635     171.418
  H      -97.169     107.361     164.689
  H      -93.430     110.776     170.863
  H      -97.771     105.776     164.246
  P      -95.084     102.269     164.874
  C      -96.146     102.210     162.499
  O      -94.981     102.399     163.278
  O      -96.675     102.258     165.104
  O      -94.465     101.059     165.499
  H      -96.984     101.329     165.130
  H      -95.961     102.605     161.494
  H      -97.002     102.740     162.925
  H      -96.374     101.141     162.421
  H      -99.406     110.457     166.526
  H     -100.514     109.506     165.568
  H      -98.814     109.537     165.164

 3  4  5  6  7  8  9  10  11  12  13  23  27  28  29  30  32 0
 6-311+G(2d,p)
 ****
 34  35 0
 6-311+G(2d,p)
 ****
 1  2  14  15  16  17  18  19  20  21  22  24  25  26 0
 3-21G
 ****
 31  33  36  37  38  39  40  41  42  43  44  45  46 0
 3-21G
 ****


