%nproc=1
%NoSave
%Mem=1900MB
#P OB98/GEN NMR

erre ene a

0 1
  C     -136.755     201.435      31.685
  O     -137.509     200.382      31.113
  P     -139.021     200.611      30.641
  C     -140.229     199.781      32.745
  O     -139.905     200.907      31.946
  C     -141.723     199.738      33.079
  O     -142.115     198.368      33.369
  C     -142.119     200.600      34.288
  O     -143.391     201.187      33.994
  C     -142.241     199.590      35.414
  O     -143.059     200.055      36.473
  C     -142.791     198.375      34.646
  N     -142.584     197.131      35.361
  C     -143.664     196.656      36.124
  O     -144.669     197.348      36.270
  N     -143.558     195.417      36.705
  C     -142.419     194.797      36.687
  N     -142.373     193.541      37.223
  C     -141.193     195.379      36.110
  C     -141.355     196.516      35.436
  O     -139.571     199.544      29.750
  O     -138.996     202.024      29.891
  H     -139.388     201.925      29.005
  H     -143.051     199.392      37.197
  H     -140.235     194.887      36.233
  H     -140.522     197.016      34.943
  H     -143.860     198.501      34.440
  H     -141.248     199.364      35.817
  H     -141.396     201.400      34.495
  H     -142.280     200.055      32.192
  H     -143.245     193.155      37.569
  H     -139.660     199.849      33.673
  H     -141.642     192.876      36.972
  H     -139.922     198.857      32.235
  P     -143.616     202.741      34.322
  C     -145.134     202.406      36.408
  O     -143.899     202.879      35.897
  O     -145.068     203.001      33.696
  O     -142.628     203.700      33.728
  H     -145.157     203.951      33.477
  H     -145.184     202.642      37.473
  H     -145.206     201.327      36.281
  H     -145.968     202.904      35.900
  H     -135.776     201.080      31.931
  H     -137.242     201.781      32.572
  H     -136.677     202.240      30.984

 3  4  5  6  7  8  9  10  11  12  13  24  27  28  29  30  32 0
 6-311+G(2d,p)
 ****
 34  35 0
 6-311+G(2d,p)
 ****
 1  2  14  15  16  17  18  19  20  21  22  23  25  26 0
 3-21G
 ****
 31  33  36  37  38  39  40  41  42  43  44  45  46 0
 3-21G
 ****


