%nproc=1
%NoSave
%Mem=1900MB
#P OB98/GEN NMR

erre ene a

0 1
  C       14.815     222.043     103.071
  O       15.792     221.076     102.745
  P       15.898     219.701     103.555
  C       14.145     218.264     102.359
  O       14.458     218.999     103.535
  C       12.917     217.379     102.566
  O       12.617     216.675     101.332
  C       13.079     216.332     103.677
  O       11.819     216.229     104.350
  C       13.378     215.060     102.907
  O       13.079     213.891     103.657
  C       12.518     215.274     101.657
  N       12.939     214.439     100.543
  C       12.859     213.057     100.723
  O       12.573     212.593     101.828
  N       13.120     212.241      99.651
  C       13.602     212.754      98.561
  N       13.781     211.919      97.501
  C       13.934     214.185      98.425
  C       13.541     214.970      99.425
  O       16.516     219.810     104.909
  O       16.773     218.751     102.605
  H       17.525     218.394     103.116
  H       13.139     213.111     103.065
  H       14.449     214.543      97.547
  H       13.714     216.040      99.408
  H       11.463     215.067     101.875
  H       14.440     215.031     102.642
  H       13.856     216.598     104.401
  H       12.060     218.029     102.785
  H       13.504     210.953      97.618
  H       15.001     217.633     102.114
  H       13.842     212.265      96.545
  H       13.986     218.953     101.521
  P       11.779     215.506     105.783
  C       11.484     217.756     107.041
  O       12.238     216.572     106.886
  O       13.063     214.544     105.694
  O       10.561     214.698     106.089
  H       12.936     213.788     106.299
  H       11.977     218.390     107.781
  H       10.477     217.521     107.398
  H       11.424     218.302     106.096
  H       14.912     222.883     102.415
  H       14.953     222.362     104.083
  H       13.840     221.616     102.962

 3  4  5  6  7  8  9  10  11  12  13  24  27  28  29  30  32 0
 6-311+G(2d,p)
 ****
 34  35 0
 6-311+G(2d,p)
 ****
 1  2  14  15  16  17  18  19  20  21  22  23  25  26 0
 3-21G
 ****
 31  33  36  37  38  39  40  41  42  43  44  45  46 0
 3-21G
 ****


