%nproc=1
%NoSave
%Mem=1900MB
#P OB98/GEN NMR

erre ene a

0 1
  C       -4.237      34.698      30.208
  O       -4.996      34.298      29.069
  P       -6.305      33.387      29.124
  C       -8.181      35.132      29.678
  O       -7.559      34.292      28.717
  C       -9.683      35.339      29.417
  O      -10.243      36.181      30.458
  C       -9.903      36.078      28.097
  O       -9.908      35.364      26.876
  C      -11.149      36.919      28.329
  O      -12.341      36.267      27.890
  C      -11.171      37.103      29.849
  N      -12.730      41.967      30.115
  C      -13.351      40.883      29.529
  N      -14.513      41.128      28.887
  N      -12.867      39.671      29.555
  C      -11.658      39.580      30.152
  C      -10.934      40.585      30.751
  C      -11.506      41.915      30.769
  O      -11.003      42.908      31.284
  N       -9.737      40.122      31.234
  C       -9.725      38.847      30.906
  N      -10.875      38.467      30.253
  O       -6.450      32.539      30.341
  O       -6.122      32.400      27.860
  H      -13.071      36.909      27.941
  H       -6.538      31.550      28.109
  H      -13.159      42.876      30.087
  H       -8.919      38.157      31.122
  H      -12.159      36.865      30.262
  H      -11.087      37.861      27.771
  H      -14.876      42.055      28.729
  H       -9.080      36.797      27.994
  H      -14.858      40.387      28.275
  H      -10.222      34.390      29.478
  H       -7.653      36.089      29.651
  H       -8.035      34.725      30.679
  P       -9.176      35.800      25.520
  C       -6.712      35.934      26.210
  O       -7.702      35.179      25.534
  O       -8.899      37.363      25.716
  O       -9.957      35.550      24.272
  H       -8.694      37.782      24.860
  H       -5.725      35.588      25.896
  H       -6.814      35.789      27.289
  H       -6.807      36.999      25.975
  H       -3.412      35.303      29.893
  H       -3.870      33.830      30.715
  H       -4.859      35.262      30.871

 3  4  5  6  7  8  9  10  11  12  23  26  30  31 0
 6-311+G(2d,p)
 ****
 33  35  36  37  38 0
 6-311+G(2d,p)
 ****
 1  2  13  14  15  16  17  18  19  20  21  22  24  25 0
 3-21G
 ****
 27  28  29  32  34  39  40  41  42  43  44  45  46  47  48  49 0
 3-21G
 ****


