%nproc=1
%NoSave
%Mem=1900MB
#P OB98/GEN NMR

erre ene a

0 1
  C     1221.452    -429.473     128.662
  O     1220.083    -429.136     128.478
  P     1219.684    -427.801     127.679
  C     1218.382    -427.054     129.768
  O     1219.301    -426.673     128.748
  C     1218.150    -425.890     130.737
  O     1219.326    -425.673     131.560
  C     1217.891    -424.546     130.071
  O     1216.597    -424.476     129.500
  C     1218.132    -423.587     131.219
  O     1216.988    -423.511     132.089
  C     1219.318    -424.273     131.953
  N     1220.598    -423.637     131.698
  C     1220.895    -422.511     132.471
  O     1220.057    -422.081     133.287
  N     1222.120    -421.921     132.310
  C     1222.909    -422.316     131.371
  N     1224.135    -421.726     131.318
  C     1222.562    -423.389     130.420
  C     1221.409    -424.010     130.648
  O     1218.671    -428.015     126.582
  O     1221.072    -427.279     127.073
  H     1220.956    -427.117     126.120
  H     1217.267    -423.039     132.895
  H     1223.239    -423.631     129.610
  H     1221.067    -424.816     129.993
  H     1219.132    -424.281     133.024
  H     1218.348    -422.548     130.882
  H     1218.630    -424.378     129.273
  H     1217.321    -426.164     131.406
  H     1224.352    -421.020     131.991
  H     1218.772    -427.905     130.303
  H     1224.933    -422.186     130.839
  H     1217.433    -427.331     129.288
  P     1216.223    -423.148     128.702
  C     1214.175    -422.353     130.074
  O     1215.526    -422.134     129.721
  O     1215.004    -423.604     127.746
  O     1217.356    -422.572     127.881
  H     1215.070    -423.145     126.889
  H     1213.968    -421.845     131.016
  H     1213.958    -423.421     130.206
  H     1213.520    -421.958     129.296
  H     1221.523    -430.388     129.212
  H     1221.942    -428.691     129.204
  H     1221.921    -429.593     127.708

 3  4  5  6  7  8  9  10  11  12  13  24  27  28  29  30  32 0
 6-311+G(2d,p)
 ****
 34  35 0
 6-311+G(2d,p)
 ****
 1  2  14  15  16  17  18  19  20  21  22  23  25  26 0
 3-21G
 ****
 31  33  36  37  38  39  40  41  42  43  44  45  46 0
 3-21G
 ****


