%nproc=1
%NoSave
%Mem=1900MB
#P OB98/GEN NMR

erre ene a

0 1
  C     -249.247     -59.501      77.105
  O     -248.663     -60.397      76.159
  P     -249.452     -60.703      74.798
  C     -249.100     -58.482      73.543
  O     -248.762     -59.863      73.619
  C     -247.894     -57.654      73.096
  O     -246.749     -57.881      73.941
  C     -247.428     -57.980      71.688
  O     -248.312     -57.439      70.722
  C     -246.027     -57.389      71.691
  O     -246.064     -55.976      71.435
  C     -245.567     -57.652      73.143
  N     -244.624     -58.753      73.256
  C     -243.303     -58.402      73.552
  O     -242.985     -57.218      73.662
  N     -242.374     -59.402      73.700
  C     -242.732     -60.641      73.556
  N     -241.772     -61.590      73.717
  C     -244.112     -61.052      73.232
  C     -244.996     -60.066      73.091
  O     -250.938     -60.593      74.873
  O     -249.002     -62.207      74.459
  H     -245.163     -55.645      71.621
  H     -249.725     -62.651      73.976
  H     -244.362     -62.098      73.129
  H     -246.031     -60.279      72.849
  H     -245.086     -56.755      73.556
  H     -245.393     -57.839      70.922
  H     -247.368     -59.070      71.563
  H     -248.168     -56.591      73.160
  H     -240.831     -61.281      73.927
  H     -249.447     -58.137      74.519
  H     -241.961     -62.580      73.675
  H     -249.939     -58.362      72.849
  P     -248.347     -58.128      69.276
  C     -250.702     -59.133      69.669
  O     -249.881     -58.315      68.860
  O     -247.861     -59.625      69.580
  O     -247.477     -57.476      68.249
  H     -247.351     -59.963      68.821
  H     -251.750     -58.907      69.445
  H     -250.524     -58.953      70.732
  H     -250.515     -60.185      69.438
  H     -248.600     -59.405      77.952
  H     -250.194     -59.885      77.422
  H     -249.384     -58.542      76.650

 3  4  5  6  7  8  9  10  11  12  13  23  27  28  29  30  32 0
 6-311+G(2d,p)
 ****
 34  35 0
 6-311+G(2d,p)
 ****
 1  2  14  15  16  17  18  19  20  21  22  24  25  26 0
 3-21G
 ****
 31  33  36  37  38  39  40  41  42  43  44  45  46 0
 3-21G
 ****


