%nproc=1
%NoSave
%Mem=1900MB
#P OB98/GEN NMR

erre ene a

0 1
  C      208.913     -66.898     349.031
  O      209.257     -67.469     347.763
  P      208.370     -67.261     346.444
  C      209.967     -66.525     344.556
  O      209.254     -67.605     345.152
  C      211.248     -67.007     343.867
  O      212.169     -67.549     344.831
  C      211.045     -68.106     342.834
  O      210.504     -67.590     341.631
  C      212.461     -68.661     342.714
  O      213.255     -67.862     341.824
  C      212.973     -68.540     344.164
  N      212.951     -69.814     344.872
  C      214.072     -70.632     344.720
  O      214.994     -70.299     343.974
  N      214.115     -71.824     345.404
  C      213.092     -72.198     346.110
  N      213.192     -73.384     346.770
  C      211.853     -71.406     346.221
  C      211.854     -70.235     345.586
  O      207.684     -65.935     346.377
  O      207.289     -68.445     346.479
  H      214.168     -68.206     341.883
  H      206.468     -68.138     346.050
  H      211.016     -71.765     346.799
  H      210.987     -69.587     345.623
  H      214.001     -68.153     344.174
  H      212.479     -69.685     342.331
  H      210.385     -68.882     343.246
  H      211.727     -66.130     343.403
  H      214.058     -73.899     346.677
  H      210.226     -65.809     345.344
  H      212.455     -73.764     347.346
  H      209.311     -66.026     343.834
  P      209.244     -68.307     340.951
  C      207.640     -66.317     341.200
  O      208.332     -67.165     340.300
  O      208.519     -69.289     341.811
  O      209.874     -69.028     339.665
  H      209.365     -69.841     339.481
  H      207.405     -65.380     340.691
  H      208.253     -66.097     342.082
  H      206.712     -66.799     341.510
  H      209.649     -67.172     349.757
  H      207.955     -67.263     349.339
  H      208.877     -65.832     348.944

 3  4  5  6  7  8  9  10  11  12  13  23  27  28  29  30  32 0
 6-311+G(2d,p)
 ****
 34  35 0
 6-311+G(2d,p)
 ****
 1  2  14  15  16  17  18  19  20  21  22  24  25  26 0
 3-21G
 ****
 31  33  36  37  38  39  40  41  42  43  44  45  46 0
 3-21G
 ****


