%nproc=1
%NoSave
%Mem=1900MB
#P OB98/GEN NMR

erre ene a

0 1
  C      413.152     706.129     541.699
  O      412.377     704.943     541.798
  H      412.640     706.927     542.235
  H      413.259     706.425     540.648
  H      414.140     705.977     542.146
  P      412.882     703.627     541.031
  C      414.981     702.187     541.441
  O      413.879     702.866     542.027
  C      415.708     701.338     542.483
  O      416.273     702.239     543.471
  C      414.760     700.363     543.214
  O      415.221     699.015     543.194
  C      414.563     701.020     544.583
  O      414.237     700.131     545.623
  C      415.875     701.791     544.786
  N      415.761     702.932     545.696
  C      416.155     702.730     547.023
  O      416.624     701.680     547.468
  N      416.018     703.815     547.845
  C      415.517     705.033     547.500
  O      415.415     705.964     548.292
  C      415.092     705.173     546.109
  C      415.220     704.131     545.273
  O      413.418     703.845     539.651
  O      411.594     702.682     541.011
  H      415.074     699.730     545.951
  H      411.177     702.702     540.130
  H      416.318     703.683     548.801
  H      414.677     706.129     545.802
  H      414.918     704.200     544.230
  H      416.654     701.141     545.166
  H      413.740     701.735     544.499
  H      413.790     700.309     542.703
  H      416.537     700.809     542.003
  H      415.662     702.948     541.030
  H      414.627     701.543     540.619
  P      414.705     697.900     542.173
  C      415.228     697.664     539.611
  O      415.715     697.859     540.929
  O      413.253     697.945     541.853
  O      414.996     696.517     542.949
  H      414.294     695.887     542.675
  H      416.048     697.667     538.924
  H      414.550     698.453     539.361
  H      414.718     696.725     539.554

 6  7  8  9  10  11  12  13  14  15  16  26  31  32  33  34  35 0
 6-311+G(2d,p)
 ****
 36  37 0
 6-311+G(2d,p)
 ****
 1  2  3  4  5  17  18  19  20  21  22  23  24  25 0
 3-21G
 ****
 27  28  29  30  38  39  40  41  42  43  44  45 0
 3-21G
 ****


