%nproc=1
%NoSave
%Mem=1900MB
#P OB98/GEN NMR

erre ene a

0 1
  C      -16.666     110.992     266.753
  O      -17.070     112.177     267.453
  P      -17.306     113.583     266.718
  C      -15.884     115.501     265.739
  O      -15.908     114.353     266.583
  C      -14.533     116.222     265.802
  O      -14.297     116.742     267.124
  C      -13.326     115.346     265.490
  O      -13.213     115.105     264.097
  C      -12.196     116.179     266.088
  O      -11.782     117.216     265.181
  C      -12.871     116.783     267.334
  N      -12.494     116.097     268.563
  C      -11.151     116.182     268.940
  O      -10.336     116.766     268.223
  N      -10.756     115.581     270.113
  C      -11.612     114.894     270.803
  N      -11.167     114.328     271.959
  C      -13.017     114.701     270.394
  C      -13.384     115.328     269.275
  O      -18.399     114.407     267.321
  O      -17.669     113.204     265.202
  H      -11.469     116.765     264.370
  H      -18.271     113.881     264.841
  H      -13.689     114.100     270.982
  H      -14.400     115.248     268.909
  H      -12.612     117.845     267.435
  H      -11.310     115.581     266.320
  H      -13.405     114.398     266.035
  H      -14.575     117.072     265.110
  H      -10.201     114.482     272.214
  H      -16.676     116.186     266.067
  H      -11.750     113.774     272.568
  H      -16.097     115.187     264.712
  P      -13.853     113.778     263.466
  C      -13.350     111.262     263.472
  O      -12.917     112.546     263.879
  O      -14.201     113.856     262.016
  O      -15.166     113.533     264.356
  H      -15.849     113.111     263.802
  H      -12.486     110.594     263.444
  H      -13.808     111.296     262.478
  H      -14.075     110.876     264.196
  H      -16.572     110.183     267.447
  H      -15.724     111.164     266.275
  H      -17.400     110.746     266.015

 3  4  5  6  7  8  9  10  11  12  13  23  27  28  29  30  32 0
 6-311+G(2d,p)
 ****
 34  35 0
 6-311+G(2d,p)
 ****
 1  2  14  15  16  17  18  19  20  21  22  24  25  26 0
 3-21G
 ****
 31  33  36  37  38  39  40  41  42  43  44  45  46 0
 3-21G
 ****


