%nproc=1
%NoSave
%Mem=1900MB
#P OB98/GEN NMR

erre ene a

0 1
  C        1.044    -388.909    -154.002
  O        2.193    -388.358    -154.618
  H        0.710    -389.766    -154.591
  H        0.236    -388.176    -153.955
  H        1.293    -389.254    -152.993
  P        2.714    -386.931    -154.104
  C        4.815    -388.100    -153.169
  O        3.706    -387.251    -152.879
  C        5.951    -387.888    -152.171
  O        6.577    -386.604    -152.374
  C        5.507    -387.879    -150.715
  O        5.025    -389.113    -150.235
  C        6.694    -387.224    -150.029
  O        7.744    -388.152    -149.760
  C        7.145    -386.205    -151.102
  N        6.783    -384.833    -150.756
  C        7.503    -384.256    -149.720
  O        8.386    -384.843    -149.096
  N        7.155    -382.972    -149.397
  C        6.145    -382.250    -149.959
  O        5.863    -381.112    -149.609
  C        5.390    -382.934    -151.024
  C        5.736    -384.173    -151.372
  O        1.643    -385.932    -153.771
  O        3.711    -386.446    -155.258
  H        7.974    -388.583    -150.606
  H        3.905    -385.480    -155.182
  H        7.677    -382.528    -148.656
  H        4.574    -382.397    -151.486
  H        5.199    -384.695    -152.155
  H        8.237    -386.246    -151.229
  H        6.418    -386.765    -149.078
  H        4.668    -387.175    -150.618
  H        6.709    -388.659    -152.348
  H        5.172    -387.847    -154.175
  H        4.489    -389.142    -153.158
  P        4.431    -389.328    -148.774
  C        2.061    -389.792    -149.783
  O        2.844    -389.087    -148.825
  O        5.197    -388.719    -147.642
  O        4.525    -390.935    -148.618
  H        4.710    -391.119    -147.676
  H        1.033    -389.514    -149.678
  H        2.164    -390.845    -149.622
  H        2.398    -389.547    -150.769

 6  7  8  9  10  11  12  13  14  15  16  26  31  32  33  34  35 0
 6-311+G(2d,p)
 ****
 36  37 0
 6-311+G(2d,p)
 ****
 1  2  3  4  5  17  18  19  20  21  22  23  24  25 0
 3-21G
 ****
 27  28  29  30  38  39  40  41  42  43  44  45 0
 3-21G
 ****


