%nproc=1
%NoSave
%Mem=1900MB
#P OB98/GEN NMR

erre ene a

0 1
  C     -858.674     158.853    -645.341
  O     -859.205     159.996    -644.699
  H     -858.792     157.996    -644.671
  H     -857.608     158.990    -645.541
  H     -859.206     158.648    -646.271
  P     -859.245     161.380    -645.509
  C     -861.736     161.980    -645.255
  O     -860.724     161.507    -646.129
  C     -862.895     160.984    -645.187
  O     -862.390     159.703    -644.715
  C     -864.020     161.414    -644.246
  O     -865.272     161.034    -644.823
  C     -863.769     160.598    -642.992
  O     -864.961     160.379    -642.239
  C     -863.167     159.317    -643.568
  N     -863.226     156.047    -639.715
  C     -864.249     156.473    -640.544
  N     -865.479     155.972    -640.301
  N     -864.081     157.321    -641.528
  C     -862.797     157.731    -641.671
  C     -861.701     157.393    -640.915
  C     -861.905     156.465    -639.818
  O     -861.038     156.063    -639.049
  N     -860.576     158.050    -641.355
  C     -860.992     158.777    -642.372
  N     -862.335     158.626    -642.596
  O     -858.141     161.579    -646.495
  O     -859.232     162.497    -644.368
  H     -865.643     160.066    -642.867
  H     -858.335     162.871    -644.258
  H     -863.411     155.411    -638.970
  H     -860.371     159.429    -642.964
  H     -863.937     158.607    -643.892
  H     -863.054     161.120    -642.353
  H     -865.679     155.310    -639.573
  H     -864.023     162.493    -644.047
  H     -866.241     156.244    -640.908
  H     -863.273     160.823    -646.206
  H     -862.096     162.939    -645.634
  H     -861.310     162.128    -644.258
  P     -865.674     161.622    -646.263
  C     -866.136     159.700    -647.918
  O     -865.162     160.594    -647.389
  O     -865.323     163.052    -646.497
  O     -867.265     161.400    -646.301
  H     -867.662     162.103    -646.851
  H     -865.680     159.070    -648.653
  H     -866.927     160.261    -648.370
  H     -866.533     159.097    -647.128

 6  7  8  9  10  11  12  13  14  15  26  29  33  34 0
 6-311+G(2d,p)
 ****
 36  38  39  40  41 0
 6-311+G(2d,p)
 ****
 1  2  3  4  5  16  17  18  19  20  21  22  23  24  25 0
 3-21G
 ****
 27  28  30  31  32  35  37  42  43  44  45  46  47 0
 3-21G
 ****
 48  49 0
 3-21G
 ****


