%nproc=1
%NoSave
%Mem=1900MB
#P OB98/GEN NMR

erre ene a

0 1
  C      346.069    -443.643     136.892
  O      346.793    -443.652     135.680
  H      346.109    -442.636     137.325
  H      346.510    -444.348     137.607
  H      345.022    -443.906     136.712
  P      346.945    -445.062     134.935
  C      348.478    -443.980     133.139
  O      348.316    -445.004     134.104
  C      349.812    -444.166     132.413
  O      349.933    -445.543     131.960
  C      349.962    -443.319     131.162
  O      350.305    -441.969     131.448
  C      351.074    -444.056     130.441
  O      352.373    -443.660     130.905
  C      350.777    -445.528     130.796
  N      350.177    -446.247     129.672
  C      350.989    -447.204     129.068
  O      352.143    -447.445     129.434
  N      350.450    -447.856     127.988
  C      349.223    -447.608     127.446
  O      348.822    -448.184     126.449
  C      348.416    -446.584     128.122
  C      348.923    -445.953     129.184
  O      345.811    -445.009     133.811
  O      346.798    -446.263     135.820
  H      345.073    -445.592     134.062
  H      352.581    -442.844     130.415
  H      351.031    -448.547     127.541
  H      347.434    -446.358     127.714
  H      348.354    -445.181     129.695
  H      351.711    -446.043     131.079
  H      351.037    -443.862     129.364
  H      349.047    -443.362     130.550
  H      350.626    -443.965     133.125
  H      348.482    -443.000     133.641
  H      347.640    -444.014     132.440
  P      349.202    -440.836     131.170
  C      350.678    -439.142     132.550
  O      349.954    -439.431     131.361
  O      348.288    -440.992     132.478
  O      348.481    -441.024     129.883
  H      348.802    -441.335     133.237
  H      351.102    -438.162     132.480
  H      351.460    -439.861     132.675
  H      350.016    -439.185     133.390

 6  7  8  9  10  11  12  13  14  15  16  27  31  32  33  34  35 0
 6-311+G(2d,p)
 ****
 36  37 0
 6-311+G(2d,p)
 ****
 1  2  3  4  5  17  18  19  20  21  22  23  24  25 0
 3-21G
 ****
 26  28  29  30  38  39  40  41  42  43  44  45 0
 3-21G
 ****


