%nproc=1
%NoSave
%Mem=1900MB
#P OB98/GEN NMR

erre ene a

0 1
  C     -249.507     590.159    -187.787
  O     -248.712     591.080    -188.497
  H     -250.410     590.668    -187.435
  H     -248.958     589.785    -186.912
  H     -249.801     589.324    -188.425
  P     -247.348     590.511    -189.135
  C     -244.834     590.647    -188.459
  O     -246.193     590.803    -188.056
  C     -243.983     591.750    -187.852
  O     -244.364     593.023    -188.425
  C     -244.151     591.911    -186.350
  O     -243.407     590.941    -185.626
  C     -243.643     593.335    -186.139
  O     -242.218     593.385    -186.041
  C     -244.103     594.042    -187.421
  N     -245.919     598.251    -185.186
  C     -244.669     597.745    -185.277
  N     -244.270     596.617    -185.909
  C     -245.310     596.006    -186.501
  C     -246.639     596.401    -186.491
  C     -246.928     597.591    -185.791
  N     -248.209     598.088    -185.664
  N     -247.424     595.492    -187.161
  C     -246.587     594.570    -187.589
  N     -245.297     594.840    -187.210
  O     -247.037     591.558    -190.312
  O     -247.415     589.105    -189.638
  H     -241.979     592.907    -185.220
  H     -247.394     591.214    -191.156
  H     -243.889     598.308    -184.777
  H     -246.858     593.684    -188.156
  H     -243.337     594.705    -187.828
  H     -244.055     593.773    -185.223
  H     -245.214     591.863    -186.071
  H     -242.931     591.567    -188.113
  H     -244.781     590.707    -189.554
  H     -244.477     589.654    -188.139
  H     -248.350     598.929    -185.132
  H     -248.980     597.543    -186.023
  P     -243.334     591.071    -184.030
  C     -241.579     591.988    -182.330
  O     -241.835     591.499    -183.643
  O     -243.435     589.549    -183.522
  O     -244.399     591.931    -183.417
  H     -244.334     589.351    -183.233
  H     -240.540     592.227    -182.235
  H     -241.840     591.238    -181.613
  H     -242.165     592.867    -182.156

 6  7  8  9  10  11  12  13  14  15  25  28  32  33  34  35 0
 6-311+G(2d,p)
 ****
 36  37  40 0
 6-311+G(2d,p)
 ****
 1  2  3  4  5  16  17  18  19  20  21  22  23  24 0
 3-21G
 ****
 26  27  29  30  31  38  39 41  42  43  44  45  46  47  48 0
 3-21G
 ****


