%nproc=1
%NoSave
%Mem=1900MB
#P OB98/GEN NMR

erre ene a

0 1
  C      -81.506    -306.001    -487.400
  O      -81.319    -304.739    -487.998
  H      -81.064    -306.761    -488.051
  H      -82.575    -306.218    -487.295
  H      -81.020    -306.046    -486.427
  P      -81.910    -303.428    -487.281
  C      -84.108    -302.902    -488.505
  O      -83.516    -303.568    -487.397
  C      -85.354    -302.128    -488.075
  O      -86.407    -303.063    -487.697
  C      -85.129    -301.198    -486.869
  O      -85.710    -299.910    -487.134
  C      -85.891    -301.867    -485.742
  O      -86.291    -300.962    -484.710
  C      -87.043    -302.531    -486.524
  N      -87.717    -303.552    -485.736
  C      -88.739    -303.100    -484.885
  O      -89.015    -301.898    -484.836
  N      -89.373    -304.003    -484.075
  C      -88.991    -305.246    -484.071
  N      -89.647    -306.081    -483.228
  C      -87.894    -305.767    -484.937
  C      -87.325    -304.866    -485.743
  O      -81.354    -302.132    -487.780
  O      -81.650    -303.665    -485.717
  H      -86.675    -300.158    -485.127
  H      -81.652    -302.792    -485.259
  H      -87.624    -306.800    -484.889
  H      -86.512    -305.160    -486.401
  H      -87.778    -301.785    -486.847
  H      -85.260    -302.644    -485.287
  H      -84.076    -301.069    -486.616
  H      -85.744    -301.563    -488.940
  H      -90.374    -305.692    -482.645
  H      -84.355    -303.641    -489.267
  H      -89.418    -307.070    -483.120
  H      -83.381    -302.189    -488.911
  P      -84.687    -298.659    -487.139
  C      -85.246    -297.252    -485.016
  O      -84.413    -298.246    -485.609
  O      -85.575    -297.458    -487.711
  O      -83.463    -298.896    -487.965
  H      -85.267    -297.219    -488.605
  H      -84.941    -297.089    -484.004
  H      -86.263    -297.583    -485.033
  H      -85.159    -296.339    -485.567

 6  7  8  9  10  11  12  13  14  15  16  26  30  31  32  33  35 0
 6-311+G(2d,p)
 ****
 37  38 0
 6-311+G(2d,p)
 ****
 1  2  3  4  5  17  18  19  20  21  22  23  24  25 0
 3-21G
 ****
 27  28  29  34  36  39  40  41  42  43  44  45  46 0
 3-21G
 ****


