%nproc=1
%NoSave
%Mem=1900MB
#P OB98/GEN NMR

erre ene a

0 1
  C      -30.972    -252.550     535.087
  O      -31.367    -253.888     534.875
  H      -31.856    -251.913     535.046
  H      -30.284    -252.245     534.290
  H      -30.488    -252.428     536.060
  P      -30.372    -255.062     535.306
  C      -28.301    -256.246     534.327
  O      -29.244    -255.202     534.164
  C      -28.065    -257.010     533.015
  O      -29.244    -257.778     532.679
  C      -27.815    -256.075     531.837
  O      -26.480    -255.634     531.682
  C      -28.243    -256.952     530.650
  O      -27.160    -257.792     530.218
  C      -29.376    -257.789     531.242
  N      -32.859    -257.222     527.541
  C      -31.575    -257.725     527.453
  N      -31.145    -258.071     526.218
  N      -30.784    -257.861     528.490
  C      -31.318    -257.394     529.644
  C      -32.577    -256.856     529.848
  C      -33.462    -256.768     528.703
  O      -34.605    -256.318     528.723
  N      -32.754    -256.490     531.157
  C      -31.592    -256.728     531.731
  N      -30.696    -257.306     530.856
  O      -31.244    -256.395     535.093
  O      -29.848    -254.984     536.715
  H      -27.482    -258.360     529.490
  H      -30.922    -257.099     535.680
  H      -33.437    -257.171     526.712
  H      -31.354    -256.538     532.775
  H      -29.311    -258.842     530.920
  H      -28.533    -256.348     529.789
  H      -31.673    -257.875     525.382
  H      -28.487    -255.211     531.884
  H      -30.140    -258.184     526.075
  H      -27.247    -257.726     533.149
  H      -28.689    -256.921     535.085
  H      -27.349    -255.847     534.703
  P      -26.169    -254.085     531.414
  C      -25.688    -252.737     529.229
  O      -26.334    -253.845     529.831
  O      -24.585    -253.996     531.648
  O      -26.917    -253.136     532.281
  H      -24.405    -253.684     532.561
  H      -25.901    -252.727     528.180
  H      -24.631    -252.816     529.378
  H      -26.044    -251.831     529.674

 6  7  8  9  10  11  12  13  14  15  26  29  33  34 0
 6-311+G(2d,p)
 ****
 36  38  39  40  41 0
 6-311+G(2d,p)
 ****
 1  2  3  4  5  16  17  18  19  20  21  22  23  24  25 0
 3-21G
 ****
 27  28  30  31  32  35  37  42  43  44  45  46  47 0
 3-21G
 ****
 48  49 0
 3-21G
 ****


