%nproc=1
%NoSave
%Mem=1900MB
#P OB98/GEN NMR

erre ene a

0 1
  C     -268.429     650.608     450.647
  O     -269.403     651.118     451.534
  H     -267.527     650.379     451.218
  H     -268.181     651.356     449.890
  H     -268.787     649.690     450.169
  P     -270.832     651.581     450.962
  C     -273.007     652.295     452.128
  O     -271.590     652.272     452.206
  C     -273.615     652.983     453.348
  O     -273.358     652.174     454.534
  C     -273.053     654.386     453.619
  O     -274.120     655.306     453.873
  C     -272.220     654.210     454.881
  O     -272.058     655.413     455.618
  C     -273.011     653.100     455.587
  N     -272.238     652.463     456.655
  C     -271.819     653.300     457.697
  O     -272.111     654.501     457.676
  N     -271.038     652.777     458.684
  C     -270.661     651.533     458.628
  N     -269.861     651.084     459.629
  C     -271.066     650.622     457.529
  C     -271.846     651.142     456.591
  O     -271.603     650.502     450.273
  O     -270.505     652.823     450.006
  H     -271.676     656.092     455.032
  H     -271.242     652.936     449.362
  H     -270.721     649.596     457.524
  H     -272.187     650.558     455.750
  H     -273.944     653.487     456.020
  H     -271.225     653.836     454.608
  H     -272.444     654.767     452.792
  H     -274.709     653.005     453.231
  H     -269.607     651.740     460.357
  H     -273.369     651.255     452.044
  H     -269.494     650.147     459.674
  H     -273.296     652.845     451.223
  P     -274.225     656.562     452.880
  C     -275.985     658.395     452.332
  O     -275.648     657.273     453.130
  O     -274.375     655.895     451.436
  O     -273.041     657.469     452.947
  H     -273.558     656.040     450.919
  H     -276.953     658.755     452.613
  H     -275.997     658.109     451.301
  H     -275.260     659.168     452.479

 6  7  8  9  10  11  12  13  14  15  16  26  30  31  32  33  35 0
 6-311+G(2d,p)
 ****
 37  38 0
 6-311+G(2d,p)
 ****
 1  2  3  4  5  17  18  19  20  21  22  23  24  25 0
 3-21G
 ****
 27  28  29  34  36  39  40  41  42  43  44  45  46 0
 3-21G
 ****


