%nproc=1
%NoSave
%Mem=1900MB
#P OB98/GEN NMR

erre ene a

0 1
  C     -123.880    -475.136      66.870
  O     -124.653    -476.249      66.383
  P     -124.132    -477.060      65.099
  C     -122.021    -478.548      64.661
  O     -123.021    -478.117      65.575
  C     -120.866    -479.205      65.416
  O     -120.264    -478.269      66.340
  C     -121.271    -480.400      66.271
  O     -121.488    -481.560      65.489
  C     -120.074    -480.516      67.211
  O     -119.000    -481.238      66.587
  C     -119.688    -479.039      67.419
  N     -120.108    -478.524      68.722
  C     -119.334    -477.501      69.261
  O     -118.314    -477.072      68.723
  N     -119.754    -477.006      70.466
  C     -120.811    -477.469      71.197
  O     -121.127    -476.995      72.283
  C     -121.541    -478.605      70.616
  C     -121.158    -479.075      69.427
  O     -123.239    -475.959      64.348
  O     -125.193    -477.588      64.190
  H     -119.380    -482.076      66.256
  H     -123.229    -476.145      63.390
  H     -119.227    -476.243      70.858
  H     -122.370    -479.018      71.176
  H     -121.688    -479.914      68.982
  H     -118.603    -478.917      67.330
  H     -120.322    -481.044      68.137
  H     -122.163    -480.152      66.856
  H     -120.101    -479.501      64.684
  H     -121.643    -477.683      64.110
  H     -122.468    -479.250      63.951
  P     -122.932    -482.256      65.618
  C     -125.265    -481.201      66.147
  O     -123.985    -481.047      65.573
  O     -122.905    -482.732      67.147
  O     -123.145    -483.354      64.628
  H     -122.404    -482.118      67.713
  H     -125.242    -481.855      67.025
  H     -125.947    -481.623      65.403
  H     -125.636    -480.218      66.452
  H     -124.365    -474.711      67.724
  H     -123.798    -474.396      66.102
  H     -122.903    -475.474      67.146

 3  4  5  6  7  8  9  10  11  12  13  23  28  29  30  31  32 0
 6-311+G(2d,p)
 ****
 33  34 0
 6-311+G(2d,p)
 ****
 1  2  14  15  16  17  18  19  20  21  22  24  25  26 0
 3-21G
 ****
 27  35  36  37  38  39  40  41  42  43  44  45 0
 3-21G
 ****


