%nproc=1
%NoSave
%Mem=1900MB
#P OB98/GEN NMR

erre ene a

0 1
  C     -206.954      -2.709     249.689
  O     -207.210      -3.971     249.049
  P     -208.698      -4.301     248.544
  C     -209.124      -6.728     249.406
  O     -208.872      -5.877     248.298
  C     -209.121      -8.206     248.988
  O     -209.867      -8.378     247.747
  C     -207.723      -8.797     248.758
  O     -207.782     -10.180     249.138
  C     -207.560      -8.677     247.253
  O     -206.564      -9.539     246.726
  C     -208.984      -9.013     246.798
  N     -209.296      -8.588     245.432
  C     -209.596      -9.571     244.496
  O     -209.558     -10.779     244.722
  N     -209.922      -9.120     243.242
  C     -209.936      -7.818     242.833
  O     -210.206      -7.480     241.687
  C     -209.581      -6.824     243.857
  C     -209.284      -7.249     245.085
  O     -208.676      -3.727     247.046
  O     -209.798      -3.657     249.324
  H     -206.470      -9.331     245.779
  H     -209.485      -3.210     246.880
  H     -210.156      -9.819     242.554
  H     -209.586      -5.781     243.573
  H     -209.033      -6.532     245.861
  H     -209.151     -10.093     246.887
  H     -207.281      -7.648     247.000
  H     -206.941      -8.282     249.321
  H     -209.655      -8.777     249.757
  H     -210.100      -6.481     249.833
  H     -208.359      -6.552     250.172
  P     -206.882     -10.670     250.378
  C     -206.023     -12.858     249.231
  O     -206.763     -12.263     250.274
  O     -207.920     -10.457     251.584
  O     -205.609      -9.912     250.556
  H     -208.809     -10.789     251.377
  H     -205.095     -12.314     249.038
  H     -206.624     -12.884     248.320
  H     -205.773     -13.884     249.519
  H     -205.921      -2.650     249.961
  H     -207.560      -2.625     250.567
  H     -207.191      -1.913     249.015

 3  4  5  6  7  8  9  10  11  12  13  23  28  29  30  31  32 0
 6-311+G(2d,p)
 ****
 33  34 0
 6-311+G(2d,p)
 ****
 1  2  14  15  16  17  18  19  20  21  22  24  25  26 0
 3-21G
 ****
 27  35  36  37  38  39  40  41  42  43  44  45 0
 3-21G
 ****


