%nproc=1
%NoSave
%Mem=1900MB
#P OB98/GEN NMR

erre ene a

0 1
  C     -118.685     885.713      15.979
  O     -120.065     885.868      16.292
  P     -120.746     884.739      17.213
  C     -122.677     885.346      15.578
  O     -122.307     884.751      16.822
  C     -124.108     884.996      15.218
  O     -124.184     883.607      14.813
  C     -125.113     885.140      16.354
  O     -125.523     886.489      16.529
  C     -126.255     884.269      15.854
  O     -127.060     885.018      14.923
  C     -125.523     883.135      15.133
  N     -127.618     878.644      16.199
  C     -128.021     879.623      15.309
  N     -129.133     879.358      14.583
  N     -127.399     880.770      15.157
  C     -126.285     880.875      15.903
  C     -125.771     879.973      16.828
  C     -126.509     878.741      17.035
  O     -126.228     877.864      17.838
  N     -124.613     880.429      17.384
  C     -124.393     881.590      16.789
  N     -125.397     881.919      15.913
  O     -120.722     885.394      18.666
  O     -120.073     883.406      17.192
  H     -127.612     884.379      14.437
  H     -120.736     884.696      19.351
  H     -128.121     877.781      16.263
  H     -123.530     882.220      16.979
  H     -125.995     882.888      14.179
  H     -126.922     883.935      16.660
  H     -129.574     878.458      14.574
  H     -124.711     884.718      17.287
  H     -129.426     880.054      13.902
  H     -124.402     885.613      14.353
  H     -122.004     884.974      14.789
  H     -122.555     886.431      15.657
  P     -124.847     887.299      17.748
  C     -127.036     888.439      18.592
  O     -125.762     888.585      17.953
  O     -123.502     887.868      17.105
  O     -124.589     886.463      18.965
  H     -122.828     888.010      17.806
  H     -126.974     887.691      19.391
  H     -127.770     888.146      17.852
  H     -127.311     889.397      19.027
  H     -118.365     886.529      15.365
  H     -118.540     884.792      15.453
  H     -118.113     885.702      16.883

 3  4  5  6  7  8  9  10  11  12  23  26  30  31  33  0
 6-311+G(2d,p)
 ****
 35  36  37  38 0
 6-311+G(2d,p)
 ****
 1  2  13  14  15  16  17  18  19  20  21  22  24  25  27  28  29 0
 3-21G
 ****
 32  34  39  40  41  42  43  44  45  46  47  48  49 0
 3-21G
 ****


