%nproc=1
%NoSave
%Mem=1900MB
#P OB98/GEN NMR

erre ene a

0 1
  C      554.323     916.958    -351.349
  O      553.747     918.199    -350.986
  H      554.721     917.040    -352.361
  H      553.559     916.169    -351.321
  H      555.138     916.705    -350.666
  P      553.263     918.355    -349.462
  C      555.197     920.072    -348.952
  O      554.562     918.843    -348.642
  C      556.538     920.193    -348.222
  O      557.437     919.177    -348.742
  C      557.207     921.551    -348.379
  O      557.881     921.872    -347.156
  C      558.240     921.300    -349.469
  O      559.295     922.238    -349.427
  C      558.649     919.852    -349.185
  N      559.232     919.182    -350.339
  C      560.464     919.658    -350.777
  O      561.009     920.609    -350.229
  N      561.038     919.084    -351.894
  C      560.423     918.154    -352.536
  N      561.026     917.648    -353.627
  C      559.081     917.650    -352.125
  C      558.570     918.183    -351.024
  O      553.077     916.830    -349.013
  O      552.052     919.196    -349.284
  H      559.987     921.972    -350.082
  H      553.807     916.253    -349.299
  H      558.597     916.866    -352.694
  H      557.608     917.859    -350.649
  H      559.361     919.804    -348.344
  H      557.769     921.377    -350.462
  H      556.503     922.343    -348.633
  H      556.364     919.961    -347.155
  H      561.925     918.051    -353.900
  H      554.551     920.917    -348.680
  H      560.609     916.962    -354.242
  H      555.353     920.112    -350.027
  P      557.320     923.068    -346.255
  C      556.673     921.397    -344.392
  O      556.273     922.491    -345.187
  O      556.891     924.302    -346.978
  O      558.596     923.404    -345.306
  H      558.649     924.377    -345.226
  H      555.876     921.125    -343.732
  H      557.534     921.669    -343.818
  H      556.913     920.567    -345.023

 6  7  8  9  10  11  12  13  14  15  16  26  30  31  32  33  35 0
 6-311+G(2d,p)
 ****
 37  38 0
 6-311+G(2d,p)
 ****
 1  2  3  4  5  17  18  19  20  21  22  23  24  25 0
 3-21G
 ****
 27  28  29  34  36  39  40  41  42  43  44  45  46 0
 3-21G
 ****


