%nproc=1
%NoSave
%Mem=1900MB
#P OB98/GEN NMR

erre ene a

0 1
  C      412.323    -276.792     322.923
  O      411.570    -275.907     323.744
  P      412.006    -275.778     325.286
  C      414.077    -274.301     324.746
  O      413.596    -275.535     325.263
  C      415.071    -273.664     325.716
  O      414.394    -273.248     326.918
  C      416.190    -274.590     326.173
  O      417.245    -274.662     325.227
  C      416.659    -273.873     327.428
  O      417.506    -272.763     327.076
  C      415.337    -273.369     328.016
  N      415.036    -274.263     333.045
  C      415.728    -273.343     332.336
  N      415.763    -273.177     330.996
  C      415.019    -274.107     330.379
  C      414.282    -275.130     330.968
  C      414.300    -275.184     332.375
  N      413.578    -276.102     333.100
  N      413.651    -275.885     330.014
  C      413.979    -275.329     328.864
  N      414.790    -274.246     329.033
  O      411.873    -277.272     325.828
  O      411.206    -274.807     326.087
  H      417.900    -272.435     327.895
  H      411.750    -277.267     326.800
  H      416.316    -272.648     332.918
  H      413.642    -275.673     327.891
  H      415.439    -272.371     328.461
  H      417.241    -274.520     328.095
  H      415.803    -275.575     326.428
  H      415.490    -272.764     325.235
  H      413.238    -273.617     324.601
  H      413.500    -275.956     334.089
  H      412.883    -276.648     332.609
  H      414.555    -274.478     323.777
  P      418.077    -276.038     325.169
  C      416.071    -277.284     324.068
  O      416.963    -277.199     325.172
  O      418.727    -276.130     326.629
  O      419.095    -276.094     324.082
  H      419.536    -276.669     326.598
  H      415.614    -278.276     324.078
  H      416.596    -277.143     323.129
  H      415.287    -276.532     324.180
  H      411.927    -276.780     321.929
  H      412.263    -277.784     323.319
  H      413.346    -276.477     322.904

 3  4  5  6  7  8  9  10  11  12  22  25  29  30  31  32 0
 6-311+G(2d,p)
 ****
 33  36  37 0
 6-311+G(2d,p)
 ****
 1  2  13  14  15  16  17  18  19  20  21  23  24  26 0
 3-21G
 ****
 27  28  34  35  38  39  40  41  42  43  44  45  46  47  48 0
 3-21G
 ****


