%nproc=1
%NoSave
%Mem=1900MB
#P OB98/GEN NMR

erre ene a

0 1
  C     -216.995    -926.977    -314.238
  O     -216.410    -926.506    -313.034
  P     -216.816    -925.054    -312.507
  C     -216.190    -925.830    -310.103
  O     -216.037    -924.836    -311.109
  C     -215.689    -925.293    -308.756
  O     -216.486    -924.170    -308.339
  C     -215.798    -926.303    -307.619
  O     -214.711    -927.231    -307.618
  C     -215.715    -925.380    -306.417
  O     -214.341    -925.024    -306.147
  C     -216.506    -924.158    -306.879
  N     -219.557    -923.101    -302.974
  C     -218.237    -922.783    -303.186
  N     -217.609    -922.137    -302.158
  N     -217.562    -923.051    -304.259
  C     -218.305    -923.705    -305.194
  C     -219.638    -924.103    -305.113
  C     -220.358    -923.786    -303.903
  O     -221.514    -924.103    -303.644
  N     -220.052    -924.730    -306.265
  C     -218.979    -924.743    -307.035
  N     -217.890    -924.177    -306.419
  O     -218.337    -925.228    -312.058
  O     -216.637    -923.951    -313.504
  H     -214.057    -924.409    -306.845
  H     -218.772    -924.355    -311.965
  H     -220.025    -922.869    -302.110
  H     -218.945    -925.161    -308.027
  H     -216.050    -923.214    -306.546
  H     -216.089    -925.837    -305.495
  H     -218.046    -921.953    -301.264
  H     -216.757    -926.811    -307.607
  H     -216.614    -921.926    -302.260
  H     -214.659    -924.957    -308.889
  H     -215.620    -926.722    -310.373
  H     -217.259    -926.110    -310.028
  P     -215.048    -928.757    -307.243
  C     -212.465    -928.973    -307.069
  O     -213.726    -929.332    -306.549
  O     -215.086    -929.471    -308.679
  O     -216.326    -928.923    -306.489
  H     -215.659    -930.250    -308.658
  H     -211.692    -929.210    -306.332
  H     -212.427    -927.883    -307.271
  H     -212.265    -929.520    -307.994
  H     -216.625    -927.957    -314.455
  H     -216.743    -926.315    -315.040
  H     -218.059    -927.014    -314.127

 3  4  5  6  7  8  9  10  11  12  23  26  30  31 0
 6-311+G(2d,p)
 ****
 33  35  36  37  38 0
 6-311+G(2d,p)
 ****
 1  2  13  14  15  16  17  18  19  20  21  22  24  25 0
 3-21G
 ****
 27  28  29  32  34  39  40  41  42  43  44  45  46  47  48  49 0
 3-21G
 ****


