%nproc=1
%NoSave
%Mem=1900MB
#P OB98/GEN NMR

erre ene a

0 1
  C     -228.786     125.930      68.405
  O     -229.745     126.641      67.648
  H     -229.307     125.250      69.083
  H     -228.184     126.627      68.994
  H     -228.139     125.346      67.745
  P     -229.175     127.669      66.557
  C     -228.369     129.552      68.172
  O     -228.012     128.492      67.296
  C     -227.110     130.231      68.721
  O     -226.390     129.272      69.551
  C     -226.136     130.701      67.629
  O     -225.428     131.855      68.114
  C     -225.177     129.526      67.544
  O     -223.995     129.900      66.878
  C     -225.048     129.191      69.026
  N     -221.790     126.538      71.913
  C     -222.205     127.820      71.968
  N     -223.087     128.452      71.165
  C     -223.573     127.604      70.241
  C     -223.243     126.274      70.058
  C     -222.298     125.736      70.946
  N     -221.852     124.436      70.881
  N     -223.935     125.746      68.982
  C     -224.673     126.741      68.532
  N     -224.487     127.881      69.262
  O     -230.359     128.736      66.406
  O     -228.787     127.072      65.248
  H     -223.253     129.307      67.117
  H     -230.948     128.476      65.673
  H     -221.773     128.422      72.763
  H     -225.342     126.697      67.684
  H     -224.430     129.918      69.566
  H     -225.619     128.696      66.987
  H     -226.627     130.942      66.683
  H     -227.406     131.058      69.378
  H     -228.962     129.140      68.994
  H     -228.969     130.287      67.626
  H     -221.151     124.136      71.540
  H     -222.195     123.834      70.145
  P     -226.190     133.268      68.174
  C     -225.485     134.135      65.815
  O     -226.540     133.780      66.694
  O     -225.008     134.265      68.605
  O     -227.312     133.350      69.156
  H     -225.321     134.858      69.314
  H     -225.893     134.452      64.878
  H     -224.850     133.288      65.660
  H     -224.916     134.933      66.244

 6  7  8  9  10  11  12  13  14  15  25  28  32  33  34  35 0
 6-311+G(2d,p)
 ****
 36  37  40 0
 6-311+G(2d,p)
 ****
 1  2  3  4  5  16  17  18  19  20  21  22  23  24 0
 3-21G
 ****
 26  27  29  30  31  38  39 41  42  43  44  45  46  47  48 0
 3-21G
 ****


