%nproc=1
%NoSave
%Mem=1900MB
#P OB98/GEN NMR

erre ene a

0 1
  C     -132.755     230.486     173.659
  O     -133.164     230.665     174.998
  H     -131.680     230.289     173.644
  H     -132.951     231.393     173.082
  H     -133.272     229.637     173.204
  P     -134.728     230.786     175.319
  C     -135.480     228.603     174.165
  O     -135.303     229.292     175.393
  C     -136.318     227.335     174.369
  O     -136.731     226.836     173.060
  C     -135.567     226.187     175.074
  O     -136.546     225.430     175.801
  C     -135.043     225.412     173.878
  O     -134.538     224.150     174.231
  C     -136.288     225.463     172.982
  N     -136.076     225.069     171.595
  C     -136.549     223.821     171.199
  O     -137.137     223.031     171.934
  N     -136.321     223.489     169.889
  C     -135.696     224.267     168.959
  O     -135.548     223.928     167.792
  C     -135.212     225.569     169.440
  C     -135.425     225.908     170.712
  O     -135.499     231.718     174.446
  O     -134.763     231.253     176.852
  H     -134.945     232.211     176.898
  H     -133.937     224.249     175.000
  H     -136.661     222.591     169.583
  H     -134.702     226.206     168.731
  H     -135.089     226.866     171.094
  H     -137.083     224.846     173.413
  H     -134.209     225.951     173.421
  H     -134.794     226.539     175.761
  H     -137.234     227.600     174.911
  H     -134.491     228.333     173.779
  H     -135.972     229.268     173.448
  P     -136.427     225.106     177.368
  C     -137.807     227.018     178.435
  O     -137.759     225.639     178.090
  O     -135.166     225.600     177.995
  O     -136.540     223.513     177.480
  H     -136.080     223.209     178.283
  H     -138.743     227.236     178.906
  H     -137.706     227.611     177.550
  H     -137.008     227.245     179.109

 6  7  8  9  10  11  12  13  14  15  16  27  31  32  33  34  35 0
 6-311+G(2d,p)
 ****
 36  37 0
 6-311+G(2d,p)
 ****
 1  2  3  4  5  17  18  19  20  21  22  23  24  25 0
 3-21G
 ****
 26  28  29  30  38  39  40  41  42  43  44  45 0
 3-21G
 ****


