%nproc=1
%NoSave
%Mem=1900MB
#P OB98/GEN NMR

erre ene a

0 1
  C       86.831      84.382      10.402
  O       86.399      84.383      11.752
  P       86.375      82.971      12.519
  C       83.883      82.515      11.917
  O       85.235      82.085      11.825
  C       82.963      81.513      11.225
  O       83.238      81.480       9.811
  C       83.120      80.075      11.703
  O       82.505      79.883      12.965
  C       82.460      79.325      10.551
  O       81.031      79.383      10.680
  C       82.914      80.148       9.333
  N       84.722      76.110       6.753
  C       83.515      76.356       7.313
  N       83.118      77.445       8.001
  C       84.112      78.345       8.082
  C       85.397      78.224       7.582
  C       85.693      77.042       6.884
  N       86.926      76.793       6.319
  N       86.147      79.340       7.882
  C       85.325      80.129       8.543
  N       84.080      79.577       8.678
  O       85.745      83.339      13.940
  O       87.711      82.305      12.651
  H       80.650      79.017       9.856
  H       86.132      82.787      14.647
  H       82.771      75.576       7.189
  H       85.581      81.103       8.937
  H       82.128      80.249       8.576
  H       82.744      78.269      10.506
  H       84.183      79.806      11.764
  H       81.927      81.849      11.366
  H       83.776      83.488      11.428
  H       87.098      75.863       5.968
  H       87.686      77.424       6.540
  H       83.619      82.627      12.973
  P       82.907      78.563      13.787
  C       80.466      77.927      13.306
  O       81.809      77.481      13.332
  O       82.433      78.945      15.264
  O       84.330      78.146      13.646
  H       81.526      79.300      15.277
  H       79.836      77.115      12.933
  H       80.365      78.790      12.641
  H       80.138      78.192      14.315
  H       86.798      85.379      10.016
  H       86.188      83.754       9.822
  H       87.834      84.012      10.349

 3  4  5  6  7  8  9  10  11  12  22  25  29  30  31  32 0
 6-311+G(2d,p)
 ****
 33  36  37 0
 6-311+G(2d,p)
 ****
 1  2  13  14  15  16  17  18  19  20  21  23  24  26 0
 3-21G
 ****
 27  28  34  35  38  39  40  41  42  43  44  45  46  47  48 0
 3-21G
 ****


