%nproc=1
%NoSave
%Mem=1900MB
#P OB98/GEN NMR

erre ene a

0 1
  C      903.716     -15.245    -526.910
  O      903.896     -13.895    -526.471
  P      903.268     -12.753    -527.397
  C      902.459     -11.352    -525.354
  O      902.104     -12.014    -526.564
  C      901.327     -10.419    -524.924
  O      901.160      -9.318    -525.846
  C      899.965     -11.102    -524.868
  O      899.861     -11.930    -523.722
  C      899.039      -9.893    -524.860
  O      898.971      -9.319    -523.542
  C      899.768      -8.922    -525.803
  N      898.022      -6.012    -529.644
  C      898.488      -5.708    -528.416
  N      898.929      -6.533    -527.451
  C      898.877      -7.816    -527.861
  C      898.429      -8.281    -529.089
  C      897.979      -7.319    -530.012
  N      897.498      -7.639    -531.256
  N      898.520      -9.660    -529.139
  C      898.985     -10.015    -527.966
  N      899.227      -8.936    -527.161
  O      902.464     -13.569    -528.513
  O      904.280     -11.845    -528.003
  H      899.893      -9.157    -523.244
  H      902.928     -13.513    -529.370
  H      898.505      -4.643    -528.175
  H      899.160     -11.035    -527.650
  H      899.723      -7.881    -525.452
  H      898.010     -10.134    -525.164
  H      899.801     -11.694    -525.768
  H      901.580     -10.003    -523.940
  H      903.377     -10.781    -525.496
  H      897.125      -6.894    -531.827
  H      897.386      -8.612    -531.509
  H      902.673     -12.098    -524.591
  P      898.763     -13.099    -523.751
  C      900.745     -14.702    -524.059
  O      899.494     -14.288    -524.550
  O      897.714     -12.536    -524.816
  O      898.202     -13.475    -522.420
  H      898.162     -12.190    -525.608
  H      901.111     -15.536    -524.675
  H      900.645     -15.051    -523.022
  H      901.465     -13.881    -524.110
  H      904.177     -15.912    -526.212
  H      904.166     -15.370    -527.873
  H      902.670     -15.463    -526.974

 3  4  5  6  7  8  9  10  11  12  22  25  29  30  31  32 0
 6-311+G(2d,p)
 ****
 33  36  37 0
 6-311+G(2d,p)
 ****
 1  2  13  14  15  16  17  18  19  20  21  23  24  26 0
 3-21G
 ****
 27  28  34  35  38  39  40  41  42  43  44  45  46  47  48 0
 3-21G
 ****


