%nproc=1
%NoSave
%Mem=1900MB
#P OB98/GEN NMR

erre ene a

0 1
  C       79.054    -251.275     932.448
  O       80.444    -251.626     932.514
  P       81.272    -251.051     933.769
  C       81.749    -253.427     934.731
  O       81.176    -252.137     934.944
  C       81.429    -254.360     935.900
  O       80.060    -254.803     935.845
  C       82.251    -255.634     935.917
  O       83.549    -255.415     936.460
  C       81.427    -256.512     936.847
  O       81.733    -256.194     938.216
  C       79.991    -256.091     936.508
  N       77.268    -260.364     936.254
  C       77.794    -259.712     937.348
  N       77.539    -260.264     938.554
  N       78.502    -258.620     937.276
  C       78.663    -258.169     936.007
  C       78.197    -258.723     934.836
  C       77.431    -259.949     934.931
  O       76.967    -260.583     933.985
  N       78.539    -257.966     933.748
  C       79.197    -256.938     934.254
  N       79.311    -257.024     935.621
  O       80.337    -249.855     934.299
  O       82.646    -250.580     933.429
  H       80.968    -256.476     938.754
  H       80.885    -249.184     934.751
  H       76.730    -261.208     936.365
  H       79.607    -256.118     933.683
  H       79.372    -255.964     937.406
  H       81.629    -257.580     936.719
  H       76.938    -261.065     938.696
  H       82.304    -256.091     934.917
  H       77.884    -259.774     939.379
  H       81.579    -253.803     936.835
  H       82.837    -253.329     934.632
  H       81.376    -253.830     933.786
  P       84.791    -255.450     935.437
  C       85.480    -253.010     935.991
  O       85.040    -253.925     935.005
  O       84.159    -256.131     934.128
  O       85.980    -256.191     935.935
  H       84.848    -256.605     933.631
  H       86.258    -253.447     936.624
  H       84.628    -252.700     936.613
  H       85.887    -252.124     935.493
  H       78.616    -251.714     931.576
  H       78.957    -250.211     932.399
  H       78.552    -251.639     933.320

 3  4  5  6  7  8  9  10  11  12  23  26  30  31  33  0
 6-311+G(2d,p)
 ****
 35  36  37  38 0
 6-311+G(2d,p)
 ****
 1  2  13  14  15  16  17  18  19  20  21  22  24  25  27  28  29 0
 3-21G
 ****
 32  34  39  40  41  42  43  44  45  46  47  48  49 0
 3-21G
 ****


