%nproc=1
%NoSave
%Mem=1900MB
#P OB98/GEN NMR

erre ene a

0 1
  C     -885.709    -340.882    -667.787
  O     -886.693    -340.028    -668.335
  H     -884.872    -340.269    -667.439
  H     -885.342    -341.585    -668.541
  H     -886.113    -341.433    -666.933
  P     -887.981    -340.693    -669.021
  C     -889.697    -339.521    -667.489
  O     -889.122    -340.753    -667.899
  C     -889.639    -339.384    -665.961
  O     -888.246    -339.408    -665.537
  C     -890.250    -338.058    -665.439
  O     -890.768    -338.322    -664.132
  C     -889.018    -337.176    -665.359
  O     -889.257    -336.018    -664.596
  C     -887.993    -338.181    -664.817
  N     -886.623    -337.721    -664.989
  C     -886.285    -336.521    -664.345
  O     -887.129    -335.919    -663.690
  N     -885.008    -336.040    -664.491
  C     -884.165    -336.653    -665.261
  N     -882.924    -336.102    -665.368
  C     -884.500    -337.888    -666.009
  C     -885.739    -338.364    -665.824
  O     -887.740    -341.983    -669.741
  O     -888.510    -339.563    -670.023
  H     -890.085    -335.573    -664.884
  H     -888.284    -339.796    -670.945
  H     -883.768    -338.345    -666.653
  H     -886.075    -339.260    -666.330
  H     -888.164    -338.378    -663.749
  H     -888.723    -336.835    -666.357
  H     -891.035    -337.664    -666.086
  H     -890.135    -340.245    -665.500
  H     -882.737    -335.261    -664.855
  H     -890.743    -339.513    -667.825
  H     -882.196    -336.491    -665.956
  H     -889.169    -338.684    -667.956
  P     -892.299    -338.730    -663.868
  C     -892.117    -341.191    -663.132
  O     -892.493    -340.285    -664.174
  O     -893.288    -337.846    -664.552
  O     -892.484    -338.630    -662.275
  H     -893.408    -338.387    -662.077
  H     -892.292    -342.197    -663.453
  H     -892.699    -340.990    -662.257
  H     -891.079    -341.064    -662.906

 6  7  8  9  10  11  12  13  14  15  16  26  30  31  32  33  35 0
 6-311+G(2d,p)
 ****
 37  38 0
 6-311+G(2d,p)
 ****
 1  2  3  4  5  17  18  19  20  21  22  23  24  25 0
 3-21G
 ****
 27  28  29  34  36  39  40  41  42  43  44  45  46 0
 3-21G
 ****


