%nproc=1
%NoSave
%Mem=1900MB
#P OB98/GEN NMR

erre ene a

0 1
  C     -797.789    -947.067     596.413
  O     -798.918    -946.613     597.158
  P     -799.312    -945.052     597.222
  C     -798.927    -944.872     599.751
  O     -799.860    -944.829     598.685
  C     -799.571    -944.346     601.040
  O     -799.922    -942.953     600.853
  C     -800.834    -945.070     601.472
  O     -800.522    -946.327     602.055
  C     -801.455    -944.031     602.398
  O     -800.843    -944.064     603.690
  C     -801.101    -942.697     601.700
  N     -802.182    -942.154     600.900
  C     -803.186    -941.488     601.583
  O     -803.129    -941.317     602.837
  N     -804.237    -940.919     600.893
  C     -804.320    -941.066     599.619
  N     -805.340    -940.462     598.943
  C     -803.303    -941.855     598.841
  C     -802.292    -942.350     599.530
  O     -800.211    -944.599     596.124
  O     -797.907    -944.313     597.258
  H     -801.164    -943.291     604.182
  H     -797.544    -944.110     596.351
  H     -803.426    -941.944     597.749
  H     -801.491    -942.890     599.036
  H     -800.791    -941.940     602.434
  H     -802.537    -944.172     602.534
  H     -801.489    -945.220     600.585
  H     -798.799    -944.368     601.856
  H     -805.876    -939.808     599.497
  H     -798.062    -944.222     599.478
  H     -805.274    -940.275     597.958
  H     -798.560    -945.886     599.891
  P     -801.334    -947.591     601.521
  C     -801.666    -948.352     603.990
  O     -801.223    -948.707     602.684
  O     -800.378    -948.176     600.341
  O     -802.718    -947.305     601.023
  H     -800.730    -947.894     599.468
  H     -801.762    -949.258     604.595
  H     -802.648    -947.861     603.936
  H     -800.928    -947.667     604.451
  H     -797.707    -948.130     596.503
  H     -796.901    -946.607     596.795
  H     -797.912    -946.804     595.383

 3  4  5  6  7  8  9  10  11  12  13  23  27  28  29  30  32 0
 6-311+G(2d,p)
 ****
 34  35 0
 6-311+G(2d,p)
 ****
 1  2  14  15  16  17  18  19  20  21  22  24  25  26 0
 3-21G
 ****
 31  33  36  37  38  39  40  41  42  43  44  45  46 0
 3-21G
 ****


