%nproc=1
%NoSave
%Mem=1900MB
#P OB98/GEN NMR

erre ene a

0 1
  C      243.565     533.382     559.262
  O      243.983     532.098     559.675
  H      243.398     533.995     560.152
  H      242.627     533.306     558.710
  H      244.323     533.868     558.645
  P      244.580     531.089     558.578
  C      246.387     529.972     560.039
  O      246.120     530.858     558.960
  C      247.571     529.059     559.715
  O      247.113     527.983     558.842
  C      248.727     529.768     558.998
  O      249.939     529.110     559.379
  C      248.415     529.477     557.542
  O      249.538     529.684     556.714
  C      247.907     528.035     557.641
  N      247.150     527.625     556.461
  C      247.874     527.427     555.290
  O      249.091     527.619     555.214
  N      247.151     527.057     554.193
  C      245.795     526.918     554.135
  O      245.201     526.612     553.109
  C      245.073     527.178     555.395
  C      245.776     527.515     556.481
  O      244.340     531.469     557.153
  O      243.916     529.678     558.934
  H      250.331     529.253     557.101
  H      243.813     529.141     558.129
  H      247.668     526.901     553.335
  H      244.000     527.093     555.379
  H      245.273     527.709     557.422
  H      248.744     527.337     557.761
  H      247.619     530.140     557.181
  H      248.783     530.833     559.215
  H      247.913     528.582     560.646
  H      245.488     529.371     560.209
  H      246.604     530.549     560.943
  P      251.268     529.926     559.770
  C      250.810     529.742     562.301
  O      251.054     530.616     561.198
  O      251.755     530.854     558.703
  O      252.367     528.790     560.075
  H      253.257     529.140     559.879
  H      250.685     530.320     563.193
  H      251.640     529.078     562.420
  H      249.922     529.174     562.116

 6  7  8  9  10  11  12  13  14  15  16  26  31  32  33  34  35 0
 6-311+G(2d,p)
 ****
 36  37 0
 6-311+G(2d,p)
 ****
 1  2  3  4  5  17  18  19  20  21  22  23  24  25 0
 3-21G
 ****
 27  28  29  30  38  39  40  41  42  43  44  45 0
 3-21G
 ****


