%nproc=1
%NoSave
%Mem=1900MB
#P OB98/GEN NMR

erre ene a

0 1
  C      -74.116     667.422     280.459
  O      -73.436     668.399     281.249
  P      -74.276     669.237     282.334
  C      -74.458     671.501     281.110
  O      -75.148     670.341     281.564
  C      -75.422     672.701     281.000
  O      -75.966     673.047     282.316
  C      -74.731     673.954     280.459
  O      -75.657     674.742     279.680
  C      -74.414     674.739     281.716
  O      -74.205     676.129     281.438
  C      -75.651     674.426     282.564
  N      -75.286     677.951     286.264
  C      -75.591     678.054     284.954
  N      -75.702     677.067     284.038
  C      -75.448     675.873     284.600
  C      -75.119     675.614     285.926
  C      -75.036     676.726     286.774
  N      -74.683     676.621     288.105
  N      -74.937     674.260     286.119
  C      -75.087     673.722     284.941
  N      -75.428     674.643     283.982
  O      -73.498     669.755     283.497
  O      -75.390     668.190     282.811
  H      -74.108     676.583     282.304
  H      -75.498     668.260     283.786
  H      -75.788     679.062     284.600
  H      -74.952     672.666     284.703
  H      -76.513     675.025     282.264
  H      -73.491     674.338     282.174
  H      -73.834     673.762     279.849
  H      -76.271     672.417     280.372
  H      -74.002     671.301     280.139
  H      -74.534     677.481     288.617
  H      -74.366     675.730     288.464
  H      -73.638     671.714     281.794
  P      -75.737     674.365     278.116
  C      -73.808     675.755     277.017
  O      -74.254     674.516     277.539
  O      -76.803     675.111     277.380
  O      -75.996     672.783     278.163
  H      -75.369     672.298     278.737
  H      -72.737     675.679     276.811
  H      -73.968     676.557     277.741
  H      -74.342     675.979     276.097
  H      -73.421     666.957     279.791
  H      -74.891     667.897     279.894
  H      -74.545     666.681     281.100

 3  4  5  6  7  8  9  10  11  12  22  25  29  30  31  32 0
 6-311+G(2d,p)
 ****
 33  36  37 0
 6-311+G(2d,p)
 ****
 1  2  13  14  15  16  17  18  19  20  21  23  24  26 0
 3-21G
 ****
 27  28  34  35  38  39  40  41  42  43  44  45  46  47  48 0
 3-21G
 ****


