%nproc=1
%NoSave
%Mem=1900MB
#P OB98/GEN NMR

erre ene a

0 1
  C        5.062      52.602      57.193
  O        4.640      53.878      56.751
  P        3.832      54.042      55.377
  C        5.500      54.529      53.464
  O        4.834      53.522      54.231
  C        5.972      53.964      52.125
  O        6.777      52.785      52.327
  C        4.842      53.541      51.195
  O        4.248      54.667      50.583
  C        5.585      52.612      50.236
  O        6.254      53.359      49.208
  C        6.604      51.934      51.172
  N        6.204      50.581      51.549
  C        5.793      49.750      50.498
  O        5.755      50.181      49.342
  N        5.391      48.466      50.797
  C        5.378      48.068      52.023
  N        4.959      46.792      52.254
  C        5.775      48.921      53.162
  C        6.170      50.154      52.857
  O        3.234      55.388      55.143
  O        2.745      52.864      55.453
  H        5.572      53.938      48.809
  H        2.020      53.083      56.092
  H        5.736      48.542      54.175
  H        6.480      50.849      53.628
  H        7.589      51.872      50.686
  H        4.909      51.912      49.734
  H        4.095      52.963      51.757
  H        6.597      54.724      51.639
  H        4.668      46.252      51.448
  H        6.364      54.880      54.033
  H        4.874      46.387      53.176
  H        4.821      55.372      53.314
  P        2.721      54.609      50.106
  C        3.106      54.666      47.568
  O        2.689      53.888      48.669
  O        1.971      55.898      50.192
  O        2.069      53.508      51.077
  H        1.205      53.833      51.388
  H        3.354      53.991      46.735
  H        3.987      55.259      47.818
  H        2.294      55.324      47.259
  H        5.581      52.701      58.123
  H        5.715      52.170      56.464
  H        4.209      51.970      57.326

 3  4  5  6  7  8  9  10  11  12  13  23  27  28  29  30  32 0
 6-311+G(2d,p)
 ****
 34  35 0
 6-311+G(2d,p)
 ****
 1  2  14  15  16  17  18  19  20  21  22  24  25  26 0
 3-21G
 ****
 31  33  36  37  38  39  40  41  42  43  44  45  46 0
 3-21G
 ****


