%nproc=1
%NoSave
%Mem=1900MB
#P OB98/GEN NMR

erre ene a

0 1
  C       42.958      94.496     -30.631
  O       43.441      94.207     -31.941
  P       43.688      95.299     -33.078
  C       42.308      93.955     -34.857
  O       43.531      94.582     -34.500
  C       42.502      92.710     -35.740
  O       42.877      91.582     -34.908
  C       41.190      92.327     -36.424
  O       40.798      92.971     -37.621
  C       41.236      90.810     -36.523
  O       41.748      90.356     -37.777
  C       42.181      90.412     -35.386
  N       39.454      86.380     -33.814
  C       39.894      86.693     -35.084
  N       39.521      85.856     -36.075
  N       40.619      87.744     -35.359
  C       40.845      88.544     -34.294
  C       40.445      88.350     -32.991
  C       39.692      87.152     -32.684
  O       39.288      86.820     -31.575
  N       40.843      89.385     -32.184
  C       41.458      90.215     -33.000
  N       41.494      89.744     -34.293
  O       44.885      96.168     -32.889
  O       42.381      96.239     -32.980
  H       41.838      89.389     -37.732
  H       42.670      97.143     -33.221
  H       38.918      85.545     -33.653
  H       41.901      91.160     -32.709
  H       42.951      89.715     -35.738
  H       40.228      90.387     -36.429
  H       38.867      85.101     -35.948
  H       40.383      92.548     -35.713
  H       39.655      86.196     -37.029
  H       43.330      92.855     -36.439
  H       41.709      94.706     -35.380
  H       41.751      93.685     -33.959
  P       39.301      93.343     -38.051
  C       39.427      92.421     -40.438
  O       39.286      93.579     -39.634
  O       39.091      94.821     -37.475
  O       38.248      92.417     -37.539
  H       38.142      95.045     -37.452
  H       39.711      92.724     -41.449
  H       38.474      91.887     -40.481
  H       40.200      91.759     -40.036
  H       42.883      93.588     -30.070
  H       41.993      94.953     -30.699
  H       43.635      95.164     -30.140

 3  4  5  6  7  8  9  10  11  12  23  26  30  31 0
 6-311+G(2d,p)
 ****
 33  35  36  37  38 0
 6-311+G(2d,p)
 ****
 1  2  13  14  15  16  17  18  19  20  21  22  24  25 0
 3-21G
 ****
 27  28  29  32  34  39  40  41  42  43  44  45  46  47  48  49 0
 3-21G
 ****


