%nproc=1
%NoSave
%Mem=1900MB
#P OB98/GEN NMR

erre ene a

0 1
  C      225.587     624.161     491.204
  O      226.712     623.977     492.034
  H      225.912     624.623     490.269
  H      224.867     624.829     491.690
  H      225.108     623.205     490.975
  P      226.542     623.150     493.396
  C      227.640     624.686     495.164
  O      227.782     623.542     494.335
  C      228.669     625.765     494.784
  O      228.312     626.305     493.471
  C      228.722     626.957     495.762
  O      230.065     627.457     495.732
  C      227.755     627.918     495.091
  O      227.816     629.214     495.637
  C      228.191     627.731     493.629
  N      227.284     628.286     492.638
  C      227.340     629.654     492.400
  O      228.103     630.435     492.971
  N      226.465     630.134     491.455
  C      225.566     629.393     490.743
  O      224.827     629.874     489.889
  C      225.548     627.953     491.039
  C      226.401     627.470     491.952
  O      226.301     621.683     493.245
  O      225.312     623.877     494.127
  H      224.503     623.342     494.006
  H      227.399     629.204     496.523
  H      226.487     631.129     491.272
  H      224.847     627.338     490.493
  H      226.416     626.407     492.186
  H      229.189     628.156     493.484
  H      226.727     627.577     495.237
  H      228.452     626.682     496.787
  H      229.651     625.292     494.679
  H      227.795     624.377     496.204
  H      226.624     625.085     495.052
  P      230.941     627.717     497.059
  C      232.110     629.840     496.147
  O      232.273     628.516     496.629
  O      231.211     626.481     497.855
  O      230.111     628.786     497.919
  H      230.328     628.682     498.861
  H      233.067     630.250     495.900
  H      231.649     630.441     496.903
  H      231.491     629.828     495.274

 6  7  8  9  10  11  12  13  14  15  16  27  31  32  33  34  35 0
 6-311+G(2d,p)
 ****
 36  37 0
 6-311+G(2d,p)
 ****
 1  2  3  4  5  17  18  19  20  21  22  23  24  25 0
 3-21G
 ****
 26  28  29  30  38  39  40  41  42  43  44  45 0
 3-21G
 ****


