%nproc=1
%NoSave
%Mem=1900MB
#P OB98/GEN NMR

erre ene a

0 1
  C     -439.056     272.870    -428.667
  O     -439.096     271.535    -428.214
  H     -438.449     273.457    -427.971
  H     -440.066     273.286    -428.688
  H     -438.609     272.939    -429.662
  P     -439.640     270.400    -429.204
  C     -441.986     270.197    -428.146
  O     -441.233     270.571    -429.291
  C     -443.432     269.867    -428.530
  O     -444.051     271.052    -429.100
  C     -443.494     268.772    -429.605
  O     -444.698     268.018    -429.532
  C     -443.486     269.574    -430.897
  O     -444.041     268.857    -432.003
  C     -444.295     270.808    -430.493
  N     -445.996     274.563    -433.496
  C     -446.649     273.425    -433.062
  N     -447.930     273.269    -433.485
  N     -446.096     272.511    -432.311
  C     -444.794     272.763    -432.023
  C     -444.033     273.840    -432.407
  C     -444.669     274.863    -433.216
  O     -444.130     275.876    -433.644
  N     -442.751     273.743    -431.932
  C     -442.731     272.610    -431.264
  N     -443.961     271.987    -431.266
  O     -439.483     269.052    -428.354
  O     -438.934     270.302    -430.525
  H     -444.444     269.512    -432.601
  H     -439.448     268.280    -428.947
  H     -446.479     275.248    -434.050
  H     -441.871     272.199    -430.750
  H     -445.368     270.624    -430.621
  H     -442.451     269.805    -431.151
  H     -448.319     273.842    -434.216
  H     -442.645     268.094    -429.561
  H     -448.308     272.318    -433.447
  H     -444.007     269.607    -427.635
  H     -441.954     271.044    -427.452
  H     -441.517     269.350    -427.643
  P     -444.615     266.480    -429.090
  C     -443.304     265.750    -431.274
  O     -443.423     265.755    -429.867
  O     -445.935     265.832    -429.719
  O     -444.538     266.273    -427.609
  H     -446.533     265.519    -429.012
  H     -442.429     265.203    -431.556
  H     -443.225     266.756    -431.629
  H     -444.168     265.287    -431.703

 6  7  8  9  10  11  12  13  14  15  26  29  33  34 0
 6-311+G(2d,p)
 ****
 36  38  39  40  41 0
 6-311+G(2d,p)
 ****
 1  2  3  4  5  16  17  18  19  20  21  22  23  24  25 0
 3-21G
 ****
 27  28  30  31  32  35  37  42  43  44  45  46  47 0
 3-21G
 ****
 48  49 0
 3-21G
 ****


