%nproc=1
%NoSave
%Mem=1900MB
#P OB98/GEN NMR

erre ene a

0 1
  C     -335.303      24.663    -108.711
  O     -335.791      24.073    -109.918
  P     -336.720      22.773    -109.787
  C     -337.913      23.049    -112.079
  O     -337.083      22.243    -111.264
  C     -337.959      22.525    -113.520
  O     -336.688      22.764    -114.196
  C     -338.240      21.026    -113.626
  O     -338.936      20.782    -114.846
  C     -336.850      20.428    -113.730
  O     -336.877      19.102    -114.259
  C     -336.172      21.480    -114.611
  N     -331.912      20.100    -116.939
  C     -333.229      19.949    -117.331
  N     -333.439      19.376    -118.533
  N     -334.245      20.330    -116.605
  C     -333.879      20.916    -115.440
  C     -332.616      21.117    -114.936
  C     -331.496      20.675    -115.746
  O     -330.309      20.770    -115.441
  N     -332.657      21.730    -113.707
  C     -333.940      21.888    -113.466
  N     -334.725      21.449    -114.497
  O     -338.107      23.377    -109.265
  O     -336.188      21.737    -108.850
  H     -335.951      18.771    -114.276
  H     -338.246      23.133    -108.333
  H     -331.161      19.783    -117.536
  H     -334.364      22.311    -112.565
  H     -336.413      21.343    -115.676
  H     -336.384      20.392    -112.736
  H     -332.694      19.110    -119.168
  H     -338.815      20.610    -112.790
  H     -334.392      19.292    -118.865
  H     -338.725      23.085    -114.075
  H     -337.552      24.080    -112.082
  H     -338.915      23.082    -111.639
  P     -340.520      20.521    -114.745
  C     -341.043      21.100    -117.229
  O     -340.998      20.109    -116.220
  O     -341.129      21.988    -114.552
  O     -340.937      19.591    -113.654
  H     -341.991      21.942    -114.096
  H     -340.182      20.973    -117.886
  H     -341.034      22.115    -116.805
  H     -341.959      20.974    -117.808
  H     -334.702      25.516    -108.949
  H     -334.713      23.948    -108.178
  H     -336.129      24.968    -108.103

 3  4  5  6  7  8  9  10  11  12  23  26  30  31 0
 6-311+G(2d,p)
 ****
 33  35  36  37  38 0
 6-311+G(2d,p)
 ****
 1  2  13  14  15  16  17  18  19  20  21  22  24  25 0
 3-21G
 ****
 27  28  29  32  34  39  40  41  42  43  44  45  46  47  48  49 0
 3-21G
 ****


