%nproc=1
%NoSave
%Mem=1900MB
#P OB98/GEN NMR

erre ene a

0 1
  C     -125.767    -188.299     310.906
  O     -126.266    -189.616     310.960
  H     -126.197    -187.759     310.056
  H     -126.037    -187.778     311.829
  H     -124.675    -188.315     310.818
  P     -126.062    -190.512     309.644
  C     -125.706    -192.678     311.021
  O     -126.487    -192.008     310.041
  C     -126.320    -194.033     311.347
  O     -127.547    -193.863     312.088
  C     -126.701    -194.872     310.134
  O     -125.572    -195.517     309.553
  C     -127.657    -195.874     310.769
  O     -126.903    -196.918     311.415
  C     -128.379    -195.020     311.820
  N     -133.424    -195.995     311.897
  C     -132.371    -196.664     312.425
  N     -131.058    -196.353     312.354
  C     -130.875    -195.208     311.671
  C     -131.849    -194.419     311.083
  C     -133.180    -194.857     311.204
  N     -134.247    -194.180     310.657
  N     -131.293    -193.319     310.476
  C     -129.997    -193.436     310.692
  N     -129.694    -194.564     311.406
  O     -124.470    -190.602     309.497
  O     -126.696    -189.977     308.402
  H     -127.550    -197.476     311.890
  H     -124.235    -190.602     308.548
  H     -132.610    -197.568     312.970
  H     -129.245    -192.721     310.362
  H     -128.487    -195.563     312.770
  H     -128.326    -196.351     310.044
  H     -127.244    -194.274     309.392
  H     -125.615    -194.581     311.991
  H     -125.670    -192.071     311.934
  H     -135.178    -194.431     310.946
  H     -134.054    -193.322     310.147
  H     -124.688    -192.806     310.640
  P     -125.389    -195.397     307.963
  C     -122.839    -195.826     308.221
  O     -124.064    -196.238     307.625
  O     -124.922    -193.877     307.761
  O     -126.600    -195.715     307.159
  H     -125.156    -193.574     306.865
  H     -122.051    -196.477     307.904
  H     -122.929    -195.867     309.286
  H     -122.615    -194.824     307.920

 6  7  8  9  10  11  12  13  14  15  25  28  32  33  34  35 0
 6-311+G(2d,p)
 ****
 36  39  40 0
 6-311+G(2d,p)
 ****
 1  2  3  4  5  16  17  18  19  20  21  22  23  24 0
 3-21G
 ****
 26  27  29  30  31  37  38  41  42  43  44  45  46  47  48 0
 3-21G
 ****


