%nproc=1
%NoSave
%Mem=1900MB
#P OB98/GEN NMR

erre ene a

0 1
  C     -107.683    -694.766    1004.299
  O     -107.726    -694.946    1002.900
  H     -108.443    -695.407    1004.761
  H     -107.912    -693.725    1004.542
  H     -106.702    -695.038    1004.700
  P     -106.465    -694.426    1002.057
  C     -106.270    -696.322    1000.297
  O     -105.733    -695.731    1001.469
  C     -107.027    -697.606    1000.645
  O     -108.137    -697.267    1001.524
  C     -107.607    -698.350     999.431
  O     -107.510    -699.761     999.657
  C     -109.071    -697.963     999.465
  O     -109.897    -698.902     998.787
  C     -109.310    -697.889    1000.971
  N     -114.282    -697.914    1000.266
  C     -113.335    -698.886    1000.002
  N     -113.761    -700.017     999.401
  N     -112.066    -698.761    1000.299
  C     -111.778    -697.582    1000.910
  C     -112.618    -696.541    1001.223
  C     -114.016    -696.690    1000.874
  O     -114.903    -695.858    1001.057
  N     -111.932    -695.498    1001.783
  C     -110.662    -695.897    1001.798
  N     -110.521    -697.155    1001.271
  O     -105.467    -693.911    1003.199
  O     -106.762    -693.357    1001.057
  H     -109.864    -699.753     999.272
  H     -105.583    -692.950    1003.331
  H     -115.235    -698.062    1000.001
  H     -109.820    -695.319    1002.148
  H     -109.417    -698.885    1001.418
  H     -109.206    -696.980     998.995
  H     -114.721    -700.205     999.168
  H     -107.111    -698.101     998.481
  H     -113.080    -700.752     999.238
  H     -106.358    -698.265    1001.221
  H     -105.449    -696.575     999.611
  H     -106.937    -695.611     999.804
  P     -106.140    -700.496     999.257
  C     -105.413    -702.157    1001.132
  O     -105.328    -700.839    1000.597
  O     -105.279    -699.325     998.594
  O     -106.327    -701.642     998.310
  H     -104.731    -699.683     997.877
  H     -104.819    -702.221    1002.019
  H     -105.052    -702.859    1000.410
  H     -106.432    -702.381    1001.369

 6  7  8  9  10  11  12  13  14  15  26  29  33  34 0
 6-311+G(2d,p)
 ****
 36  38  39  40  41 0
 6-311+G(2d,p)
 ****
 1  2  3  4  5  16  17  18  19  20  21  22  23  24  25 0
 3-21G
 ****
 27  28  30  31  32  35  37  42  43  44  45  46  47 0
 3-21G
 ****
 48  49 0
 3-21G
 ****


