%nproc=1
%NoSave
%Mem=1900MB
#P OB98/GEN NMR

erre ene a

0 1
  C       26.602     541.263     525.360
  O       26.101     540.926     526.663
  P       27.198     540.452     527.750
  C       26.714     541.473     530.101
  O       26.474     540.418     529.171
  C       25.873     541.293     531.356
  O       24.466     541.262     531.036
  C       26.132     539.981     532.106
  O       27.304     540.069     532.905
  C       24.889     539.888     532.968
  O       25.065     540.706     534.160
  C       23.786     540.502     532.062
  N       19.064     538.910     531.196
  C       19.503     539.987     531.915
  N       18.532     540.801     532.449
  N       20.764     540.296     532.080
  C       21.613     539.422     531.466
  C       21.277     538.299     530.724
  C       19.889     537.981     530.563
  O       19.430     537.014     529.969
  N       22.406     537.684     530.236
  C       23.409     538.420     530.662
  N       22.977     539.496     531.425
  O       28.167     541.736     527.868
  O       27.951     539.218     527.352
  H       25.316     541.607     533.861
  H       29.060     541.466     528.137
  H       18.068     538.738     531.090
  H       24.447     538.250     530.449
  H       23.150     541.180     532.628
  H       24.680     538.879     533.313
  H       17.562     540.674     532.299
  H       26.161     539.145     531.411
  H       18.866     541.622     532.949
  H       26.067     542.148     532.019
  H       26.487     542.430     529.634
  H       27.787     541.482     530.331
  P       28.491     539.016     532.585
  C       30.067     540.798     533.669
  O       29.679     539.436     533.567
  O       28.997     539.497     531.149
  O       28.082     537.597     532.594
  H       29.371     538.756     530.656
  H       29.170     541.446     533.717
  H       30.670     541.062     532.793
  H       30.656     540.939     534.577
  H       25.789     541.560     524.731
  H       27.090     540.411     524.934
  H       27.301     542.069     525.444

 3  4  5  6  7  8  9  10  11  12  23  26  30  31  33  0
 6-311+G(2d,p)
 ****
 35  36  37  38 0
 6-311+G(2d,p)
 ****
 1  2  13  14  15  16  17  18  19  20  21  22  24  25  27  28  29 0
 3-21G
 ****
 32  34  39  40  41  42  43  44  45  46  47  48  49 0
 3-21G
 ****


