%nproc=1
%NoSave
%Mem=1900MB
#P OB98/GEN NMR

erre ene a

0 1
  C     -608.954    2091.930    1408.733
  O     -609.270    2091.333    1407.472
  P     -610.819    2090.955    1407.236
  C     -610.586    2088.567    1406.140
  O     -610.844    2089.949    1405.962
  C     -610.458    2087.861    1404.804
  O     -611.639    2088.040    1404.032
  C     -609.299    2088.374    1403.923
  O     -608.036    2087.924    1404.361
  C     -609.756    2087.845    1402.567
  O     -609.392    2086.429    1402.477
  C     -611.286    2087.982    1402.643
  N     -613.649    2089.908    1398.492
  C     -613.283    2088.652    1398.825
  N     -612.642    2088.191    1399.925
  C     -612.379    2089.242    1400.728
  C     -612.666    2090.603    1400.539
  C     -613.295    2090.935    1399.370
  N     -613.675    2092.205    1399.011
  N     -612.187    2091.352    1401.599
  C     -611.638    2090.476    1402.417
  N     -611.747    2089.225    1401.977
  O     -611.425    2092.304    1406.645
  O     -611.581    2090.446    1408.434
  H     -609.756    2086.080    1401.634
  H     -612.368    2092.437    1406.944
  H     -613.561    2087.883    1398.120
  H     -611.188    2090.743    1403.396
  H     -611.794    2087.140    1402.172
  H     -609.258    2088.363    1401.713
  H     -609.332    2089.496    1403.877
  H     -610.281    2086.779    1405.033
  H     -611.405    2088.134    1406.724
  H     -613.999    2092.374    1398.073
  H     -613.315    2092.958    1399.589
  H     -609.660    2088.469    1406.758
  P     -606.988    2089.030    1404.860
  C     -605.114    2087.542    1403.908
  O     -605.627    2088.228    1405.021
  O     -607.484    2089.307    1406.362
  O     -606.901    2090.236    1403.973
  H     -607.577    2088.461    1406.854
  H     -604.180    2087.050    1404.164
  H     -604.952    2088.274    1403.084
  H     -605.818    2086.774    1403.569
  H     -607.905    2092.136    1408.777
  H     -609.219    2091.258    1409.522
  H     -609.502    2092.842    1408.843

 3  4  5  6  7  8  9  10  11  12  22  25  29  30  31  32 0
 6-311+G(2d,p)
 ****
 33  36  37 0
 6-311+G(2d,p)
 ****
 1  2  13  14  15  16  17  18  19  20  21  23  24  26 0
 3-21G
 ****
 27  28  34  35  38  39  40  41  42  43  44  45  46  47  48 0
 3-21G
 ****


