%nproc=1
%NoSave
%Mem=1900MB
#P OB98/GEN NMR

erre ene a

0 1
  C     -447.314     449.188     -83.298
  O     -446.906     449.871     -82.128
  H     -447.583     448.162     -83.030
  H     -446.497     449.161     -84.025
  H     -448.184     449.681     -83.738
  P     -446.367     451.370     -82.330
  C     -444.480     452.302     -83.873
  O     -445.039     451.176     -83.213
  C     -443.097     451.950     -84.409
  O     -442.170     451.735     -83.321
  C     -443.057     450.669     -85.237
  O     -443.529     450.851     -86.562
  C     -441.568     450.369     -85.205
  O     -440.880     451.252     -86.112
  C     -441.227     450.707     -83.734
  N     -441.310     449.548     -82.845
  C     -440.114     448.862     -82.594
  O     -439.063     449.226     -83.116
  N     -440.145     447.751     -81.783
  C     -441.268     447.366     -81.258
  N     -441.241     446.255     -80.474
  C     -442.547     448.070     -81.481
  C     -442.495     449.135     -82.274
  O     -445.775     451.754     -80.890
  O     -447.351     452.352     -82.874
  H     -441.082     450.942     -87.015
  H     -445.304     452.621     -80.945
  H     -443.457     447.703     -81.028
  H     -443.396     449.701     -82.485
  H     -440.221     451.135     -83.656
  H     -441.330     449.350     -85.505
  H     -443.588     449.850     -84.741
  H     -442.729     452.810     -84.987
  H     -440.366     445.757     -80.389
  H     -444.410     453.125     -83.154
  H     -442.085     445.779     -80.173
  H     -445.124     452.609     -84.705
  P     -444.688     449.868     -87.080
  C     -444.870     448.071     -88.950
  O     -444.013     448.861     -88.132
  O     -445.581     450.821     -88.002
  O     -445.494     449.218     -86.000
  H     -446.533     450.621     -87.900
  H     -444.279     447.455     -89.595
  H     -445.491     448.712     -89.540
  H     -445.484     447.452     -88.330

 6  7  8  9  10  11  12  13  14  15  16  26  30  31  32  33  35 0
 6-311+G(2d,p)
 ****
 37  38 0
 6-311+G(2d,p)
 ****
 1  2  3  4  5  17  18  19  20  21  22  23  24  25 0
 3-21G
 ****
 27  28  29  34  36  39  40  41  42  43  44  45  46 0
 3-21G
 ****


