%nproc=1
%NoSave
%Mem=1900MB
#P OB98/GEN NMR

erre ene a

0 1
  C      -40.064     237.833       2.593
  O      -40.774     237.978       3.807
  H      -39.154     237.260       2.788
  H      -39.787     238.813       2.195
  H      -40.675     237.292       1.866
  P      -42.135     238.827       3.746
  C      -44.521     238.169       4.464
  O      -43.131     238.054       4.743
  C      -45.332     237.289       5.415
  O      -45.055     235.900       5.105
  C      -44.992     237.513       6.890
  O      -46.187     237.424       7.666
  C      -44.079     236.348       7.227
  O      -44.099     236.024       8.614
  C      -44.626     235.251       6.315
  N      -43.274     230.391       7.073
  C      -44.397     231.075       7.379
  N      -44.682     232.370       7.124
  C      -43.679     232.952       6.443
  C      -42.475     232.385       6.065
  C      -42.282     231.037       6.415
  N      -41.131     230.340       6.131
  N      -41.684     233.316       5.421
  C      -42.405     234.422       5.398
  N      -43.612     234.254       6.020
  O      -42.674     239.087       2.380
  O      -41.744     240.128       4.589
  H      -45.006     235.740       8.851
  H      -41.254     239.895       5.399
  H      -45.166     230.512       7.901
  H      -42.094     235.365       4.962
  H      -45.482     234.726       6.754
  H      -43.046     236.599       6.954
  H      -44.508     238.474       7.066
  H      -46.399     237.451       5.222
  H      -44.723     237.873       3.429
  H      -41.081     229.371       6.405
  H      -40.387     230.799       5.624
  H      -44.803     239.220       4.586
  P      -46.975     238.776       8.011
  C      -49.424     239.591       8.035
  O      -48.550     238.467       7.998
  O      -46.552     239.990       7.256
  O      -46.681     238.954       9.579
  H      -46.568     239.904       9.774
  H      -50.439     239.254       8.022
  H      -49.243     240.212       7.182
  H      -49.246     240.152       8.929

 6  7  8  9  10  11  12  13  14  15  25  28  32  33  34  35 0
 6-311+G(2d,p)
 ****
 36  39  40 0
 6-311+G(2d,p)
 ****
 1  2  3  4  5  16  17  18  19  20  21  22  23  24 0
 3-21G
 ****
 26  27  29  30  31  37  38  41  42  43  44  45  46  47 0
 3-21G
 ****
 48 0
 3-21G
 ****


