%nproc=1
%NoSave
%Mem=1900MB
#P OB98/GEN NMR

erre ene a

0 1
  C     -116.438      57.141     -99.649
  O     -117.175      56.741     -98.505
  P     -116.634      57.046     -97.023
  C     -117.733      57.133     -94.687
  O     -117.925      56.932     -96.080
  C     -119.043      56.891     -93.942
  O     -120.069      57.750     -94.478
  C     -119.585      55.473     -94.063
  O     -118.868      54.578     -93.225
  C     -121.047      55.690     -93.692
  O     -121.193      55.777     -92.266
  C     -121.335      57.064     -94.331
  N     -122.029      56.960     -95.610
  C     -122.610      58.132     -96.101
  O     -122.524      59.192     -95.482
  N     -123.253      58.089     -97.314
  C     -123.330      56.971     -97.968
  N     -123.919      57.002     -99.194
  C     -122.780      55.701     -97.459
  C     -122.146      55.769     -96.290
  O     -115.870      58.318     -96.885
  O     -115.800      55.744     -96.626
  H     -120.619      56.509     -91.968
  H     -114.850      55.785     -96.898
  H     -122.882      54.791     -98.034
  H     -121.697      54.884     -95.859
  H     -121.936      57.680     -93.652
  H     -121.711      54.896     -94.048
  H     -119.517      55.124     -95.100
  H     -118.892      57.154     -92.887
  H     -124.122      57.919     -99.576
  H     -117.414      58.168     -94.523
  H     -123.767      56.266     -99.871
  H     -116.947      56.461     -94.330
  P     -119.024      53.009     -93.512
  C     -117.730      50.924     -92.669
  O     -117.704      52.320     -92.907
  O     -118.838      52.905     -95.097
  O     -120.317      52.424     -93.053
  H     -119.705      52.812     -95.535
  H     -116.708      50.584     -92.493
  H     -118.134      50.391     -93.533
  H     -118.331      50.709     -91.782
  H     -116.964      56.847    -100.533
  H     -115.476      56.673     -99.635
  H     -116.318      58.204     -99.642

 3  4  5  6  7  8  9  10  11  12  13  23  27  28  29  30  32 0
 6-311+G(2d,p)
 ****
 34  35 0
 6-311+G(2d,p)
 ****
 1  2  14  15  16  17  18  19  20  21  22  24  25  26 0
 3-21G
 ****
 31  33  36  37  38  39  40  41  42  43  44  45  46 0
 3-21G
 ****


