%nproc=1
%NoSave
%Mem=1900MB
#P OB98/GEN NMR

erre ene a

0 1
  C      372.749     288.621    -891.870
  O      372.929     289.927    -892.400
  P      373.384     290.048    -893.940
  C      375.545     289.219    -895.150
  O      374.952     289.806    -893.990
  C      377.018     288.883    -894.910
  O      377.127     287.843    -893.890
  C      377.748     288.366    -896.120
  O      378.108     289.420    -897.010
  C      378.949     287.667    -895.510
  O      380.001     288.601    -895.200
  C      378.345     287.111    -894.190
  N      378.079     285.661    -894.270
  C      379.191     284.833    -894.180
  O      380.334     285.270    -894.080
  N      378.950     283.480    -894.270
  C      377.733     282.901    -894.450
  O      377.592     281.697    -894.580
  C      376.584     283.831    -894.550
  C      376.824     285.144    -894.470
  O      373.221     291.604    -894.260
  O      372.591     289.185    -894.900
  H      380.727     288.070    -894.800
  H      372.936     291.720    -895.190
  H      379.750     282.869    -894.210
  H      375.596     283.398    -894.730
  H      375.991     285.833    -894.560
  H      379.027     287.289    -893.340
  H      379.382     286.908    -896.150
  H      377.147     287.604    -896.660
  H      377.516     289.794    -894.520
  H      375.456     289.916    -895.990
  H      374.993     288.308    -895.400
  P      378.699     288.989    -898.440
  C      380.978     287.862    -899.000
  O      380.256     288.794    -898.220
  O      378.540     290.384    -899.250
  O      377.953     287.837    -899.050
  H      378.675     291.153    -898.670
  H      380.595     287.807    -900.000
  H      380.916     286.881    -898.520
  H      382.047     288.162    -899.000
  H      372.449     288.690    -890.845
  H      373.669     288.079    -891.936
  H      371.993     288.110    -892.429

 3  4  5  6  7  8  9  10  11  12  13  23  28  29  30  31  32 0
 6-311+G(2d,p)
 ****
 33  34 0
 6-311+G(2d,p)
 ****
 1  2  14  15  16  17  18  19  20  21  22  24  25  26 0
 3-21G
 ****
 27  35  36  37  38  39  40  41  42  43  44  45 0
 3-21G
 ****


