%nproc=1
%NoSave
%Mem=1900MB
#P OB98/GEN NMR

erre ene a

0 1
  C     -288.077      33.762      38.351
  O     -286.679      33.898      38.181
  H     -288.529      33.552      37.377
  H     -288.510      34.687      38.743
  H     -288.299      32.931      39.026
  P     -285.791      34.290      39.453
  C     -286.046      36.849      39.159
  O     -286.332      35.710      39.963
  C     -284.600      37.300      39.361
  O     -284.354      38.527      38.646
  C     -284.238      37.586      40.815
  O     -284.065      36.380      41.532
  C     -282.980      38.420      40.627
  O     -281.848      37.588      40.331
  C     -283.367      39.277      39.396
  N     -283.873      40.601      39.741
  C     -283.013      41.409      40.498
  O     -281.911      40.988      40.845
  N     -283.444      42.665      40.850
  C     -284.600      43.094      40.452
  N     -284.961      44.347      40.833
  C     -285.517      42.289      39.623
  C     -285.100      41.061      39.319
  O     -284.305      34.225      39.267
  O     -286.285      33.283      40.594
  H     -281.669      37.072      41.142
  H     -285.715      32.492      40.625
  H     -286.470      42.690      39.304
  H     -285.715      40.400      38.715
  H     -282.500      39.407      38.732
  H     -282.729      38.997      41.519
  H     -285.003      38.216      41.280
  H     -283.943      36.532      38.937
  H     -284.291      44.872      41.384
  H     -286.735      37.642      39.463
  H     -285.756      44.841      40.449
  H     -286.225      36.627      38.098
  P     -284.470      36.261      43.078
  C     -282.204      37.146      43.918
  O     -283.604      37.377      43.843
  O     -284.375      34.889      43.655
  O     -285.946      36.875      43.131
  H     -286.606      36.221      42.789
  H     -281.737      37.951      44.446
  H     -281.799      37.086      42.929
  H     -282.021      36.227      44.435

 6  7  8  9  10  11  12  13  14  15  16  26  30  31  32  33  35 0
 6-311+G(2d,p)
 ****
 37  38 0
 6-311+G(2d,p)
 ****
 1  2  3  4  5  17  18  19  20  21  22  23  24  25 0
 3-21G
 ****
 27  28  29  34  36  39  40  41  42  43  44  45  46 0
 3-21G
 ****


