%nproc=1
%NoSave
%Mem=1900MB
#P OB98/GEN NMR

erre ene a

0 1
  C      191.362     420.335     187.952
  O      191.475     419.581     189.145
  H      191.373     421.398     188.202
  H      190.424     420.096     187.441
  H      192.206     420.125     187.286
  P      191.384     417.984     188.987
  C      189.095     418.414     190.167
  O      190.236     417.577     190.037
  C      188.500     418.264     191.561
  O      187.404     419.182     191.748
  C      187.926     416.879     191.849
  O      188.927     415.922     192.164
  C      187.050     417.194     193.048
  O      187.867     417.352     194.224
  C      186.429     418.541     192.618
  N      185.147     418.391     191.925
  C      183.992     418.407     192.724
  O      184.081     418.533     193.953
  N      182.765     418.244     192.120
  C      182.690     418.091     190.829
  N      181.456     417.918     190.290
  C      183.874     418.087     189.954
  C      185.052     418.241     190.556
  O      192.714     417.459     189.713
  O      191.188     417.465     187.600
  H      188.267     416.487     194.406
  H      192.689     416.472     189.782
  H      183.766     417.944     188.891
  H      185.969     418.239     189.975
  H      186.282     419.204     193.489
  H      186.325     416.408     193.266
  H      187.289     416.529     191.030
  H      189.285     418.533     192.291
  H      180.665     417.872     190.930
  H      188.355     418.124     189.405
  H      181.310     417.618     189.339
  H      189.381     419.459     190.005
  P      188.893     414.527     191.357
  C      186.360     414.052     191.712
  O      187.700     413.657     191.984
  O      190.211     413.776     191.887
  O      188.885     414.657     189.864
  H      190.654     413.288     191.175
  H      185.684     413.378     192.196
  H      186.189     414.031     190.656
  H      186.199     415.044     192.080

 6  7  8  9  10  11  12  13  14  15  16  26  30  31  32  33  35 0
 6-311+G(2d,p)
 ****
 37  38 0
 6-311+G(2d,p)
 ****
 1  2  3  4  5  17  18  19  20  21  22  23  24  25 0
 3-21G
 ****
 27  28  29  34  36  39  40  41  42  43  44  45  46 0
 3-21G
 ****


