%nproc=1
%NoSave
%Mem=1900MB
#P OB98/GEN NMR

erre ene a

0 1
  C      539.027    -261.608     500.587
  O      538.256    -262.020     501.709
  H      538.808    -260.560     500.348
  H      540.090    -261.708     500.825
  H      538.790    -262.238     499.720
  P      536.675    -261.919     501.580
  C      536.318    -264.233     500.464
  O      536.235    -262.828     500.331
  C      534.922    -264.856     500.470
  O      534.364    -264.685     499.135
  C      534.887    -266.365     500.816
  O      534.043    -266.583     501.944
  C      534.260    -267.019     499.593
  O      533.331    -268.056     499.929
  C      533.572    -265.858     498.880
  N      531.038    -268.535     495.369
  C      530.702    -268.197     496.622
  N      531.370    -267.395     497.479
  C      532.488    -266.898     496.896
  C      532.928    -267.138     495.603
  C      532.166    -268.030     494.839
  N      532.528    -268.418     493.555
  N      534.118    -266.452     495.355
  C      534.403    -265.859     496.488
  N      533.444    -266.108     497.457
  O      536.432    -260.421     501.055
  O      535.915    -262.182     502.840
  H      533.870    -268.804     500.259
  H      535.733    -259.990     501.599
  H      529.786    -268.627     497.016
  H      535.298    -265.276     496.701
  H      532.557    -265.677     499.285
  H      535.055    -267.434     498.967
  H      535.896    -266.776     501.014
  H      534.291    -264.287     501.151
  H      536.817    -264.472     501.424
  H      531.972    -269.127     493.102
  H      533.423    -268.119     493.192
  H      536.935    -264.643     499.648
  P      534.660    -267.453     503.154
  C      535.753    -265.521     504.534
  O      535.949    -266.662     503.690
  O      535.311    -268.721     502.395
  O      533.672    -267.849     504.188
  H      535.314    -269.476     502.991
  H      536.703    -265.109     504.803
  H      535.229    -265.817     505.419
  H      535.180    -264.784     504.010

 6  7  8  9  10  11  12  13  14  15  25  28  32  33  34  35 0
 6-311+G(2d,p)
 ****
 36  39  40 0
 6-311+G(2d,p)
 ****
 1  2  3  4  5  16  17  18  19  20  21  22  23  24 0
 3-21G
 ****
 26  27  29  30  31  37  38  41  42  43  44  45  46  47  48 0
 3-21G
 ****


