%nproc=1
%NoSave
%Mem=1900MB
#P OB98/GEN NMR

erre ene a

0 1
  C     -139.115    -643.716    -143.456
  O     -138.644    -642.419    -143.784
  H     -139.925    -643.970    -144.138
  H     -139.490    -643.739    -142.437
  H     -138.311    -644.454    -143.569
  P     -137.368    -641.882    -142.971
  C     -135.831    -642.585    -144.959
  O     -136.095    -642.676    -143.571
  C     -134.370    -642.949    -145.237
  O     -133.523    -642.064    -144.448
  C     -134.024    -644.394    -144.845
  O     -133.100    -644.918    -145.781
  C     -133.350    -644.241    -143.483
  O     -132.495    -645.318    -143.145
  C     -132.616    -642.905    -143.676
  N     -132.297    -642.270    -142.396
  C     -130.989    -642.385    -141.937
  O     -130.073    -642.926    -142.563
  N     -130.736    -641.854    -140.704
  C     -131.651    -641.242    -139.887
  O     -131.375    -640.791    -138.790
  C     -133.012    -641.141    -140.430
  C     -133.270    -641.661    -141.630
  O     -137.555    -642.525    -141.515
  O     -137.209    -640.399    -142.917
  H     -138.059    -641.938    -140.944
  H     -132.321    -645.267    -142.175
  H     -129.795    -641.932    -140.356
  H     -133.773    -640.680    -139.802
  H     -134.275    -641.624    -142.055
  H     -131.712    -643.043    -144.265
  H     -134.105    -644.153    -142.697
  H     -134.901    -645.043    -144.786
  H     -134.155    -642.757    -146.282
  H     -136.032    -641.556    -145.294
  H     -136.503    -643.268    -145.498
  P     -133.406    -646.369    -146.431
  C     -134.044    -645.226    -148.696
  O     -134.439    -646.083    -147.629
  O     -134.319    -647.004    -145.282
  O     -132.172    -647.122    -146.790
  H     -134.911    -646.368    -144.835
  H     -134.843    -645.144    -149.403
  H     -133.181    -645.633    -149.180
  H     -133.811    -644.257    -148.307

 6  7  8  9  10  11  12  13  14  15  16  27  31  32  33  34  35 0
 6-311+G(2d,p)
 ****
 36  37 0
 6-311+G(2d,p)
 ****
 1  2  3  4  5  17  18  19  20  21  22  23  24  25 0
 3-21G
 ****
 26  28  29  30  38  39  40  41  42  43  44  45 0
 3-21G
 ****


