%nproc=1
%NoSave
%Mem=1900MB
#P OB98/GEN NMR

erre ene a

0 1
  C        4.968     581.477     520.232
  O        5.074     580.337     521.089
  P        6.192     580.426     522.242
  C        6.742     582.346     523.903
  O        5.735     581.557     523.292
  C        6.162     583.172     525.057
  O        5.157     584.103     524.610
  C        5.494     582.323     526.125
  O        6.472     581.756     526.982
  C        4.600     583.343     526.827
  O        5.339     584.085     527.824
  C        4.181     584.269     525.671
  N       -0.766     584.059     526.763
  C        0.321     584.200     527.609
  N        0.047     584.330     528.922
  N        1.556     584.215     527.189
  C        1.675     584.075     525.845
  C        0.679     583.954     524.912
  C       -0.688     583.942     525.387
  O       -1.688     583.827     524.676
  N        1.183     583.899     523.639
  C        2.496     583.855     523.823
  N        2.845     584.027     525.137
  O        7.446     581.072     521.494
  O        6.530     579.096     522.847
  H        4.726     584.675     528.297
  H        8.159     580.408     521.398
  H       -1.704     584.043     527.145
  H        3.230     583.736     523.034
  H        4.204     585.326     525.975
  H        3.768     582.868     527.355
  H       -0.882     584.333     529.313
  H        4.877     581.537     525.655
  H        0.832     584.445     529.552
  H        6.990     583.742     525.502
  H        7.195     583.013     523.166
  H        7.543     581.684     524.259
  P        6.453     580.167     527.205
  C        6.983     578.142     525.657
  O        7.233     579.505     525.970
  O        4.914     579.786     526.936
  O        6.896     579.720     528.557
  H        4.619     579.152     527.616
  H        7.135     577.992     524.586
  H        5.964     577.850     525.919
  H        7.694     577.515     526.208
  H        4.198     581.309     519.508
  H        5.900     581.635     519.731
  H        4.726     582.341     520.816

 3  4  5  6  7  8  9  10  11  12  23  26  30  31 0
 6-311+G(2d,p)
 ****
 33  35  36  37  38 0
 6-311+G(2d,p)
 ****
 1  2  13  14  15  16  17  18  19  20  21  22  24  25 0
 3-21G
 ****
 27  28  29  32  34  39  40  41  42  43  44  45  46  47  48  49 0
 3-21G
 ****


