%nproc=1
%NoSave
%Mem=1900MB
#P OB98/GEN NMR

erre ene a

0 1
  C        8.351     -45.659     130.686
  O        8.077     -44.457     131.378
  H        9.182     -45.484     129.997
  H        7.480     -45.979     130.108
  H        8.641     -46.445     131.389
  P        6.843     -44.428     132.397
  C        7.956     -42.786     134.058
  O        6.897     -43.004     133.132
  C        7.655     -41.577     134.942
  O        7.656     -40.368     134.155
  C        6.293     -41.627     135.624
  O        6.309     -42.537     136.703
  C        6.116     -40.166     136.001
  O        6.879     -39.841     137.174
  C        6.704     -39.458     134.755
  N        5.692     -39.052     133.786
  C        4.862     -37.993     134.169
  O        4.995     -37.468     135.274
  N        3.891     -37.572     133.292
  C        3.786     -38.125     132.125
  N        2.808     -37.660     131.303
  C        4.664     -39.221     131.669
  C        5.577     -39.638     132.544
  O        6.722     -45.597     133.325
  O        5.562     -44.294     131.447
  H        6.722     -38.890     137.345
  H        5.188     -45.174     131.250
  H        4.547     -39.646     130.682
  H        6.263     -40.439     132.287
  H        7.266     -38.563     135.053
  H        5.077     -39.915     136.217
  H        5.514     -41.892     134.898
  H        8.462     -41.489     135.681
  H        2.243     -36.892     131.652
  H        8.864     -42.607     133.473
  H        2.738     -37.897     130.326
  H        8.115     -43.675     134.678
  P        5.136     -43.609     136.916
  C        6.395     -45.811     137.339
  O        5.726     -44.707     137.929
  O        4.546     -44.163     135.664
  O        4.077     -42.833     137.830
  H        3.552     -42.194     137.285
  H        6.742     -46.470     138.107
  H        7.229     -45.459     136.768
  H        5.719     -46.336     136.697

 6  7  8  9  10  11  12  13  14  15  16  26  30  31  32  33  35 0
 6-311+G(2d,p)
 ****
 37  38 0
 6-311+G(2d,p)
 ****
 1  2  3  4  5  17  18  19  20  21  22  23  24  25 0
 3-21G
 ****
 27  28  29  34  36  39  40  41  42  43  44  45  46 0
 3-21G
 ****


