%nproc=1
%NoSave
%Mem=1900MB
#P OB98/GEN NMR

erre ene a

0 1
  C      760.829    -898.470    -550.121
  O      761.871    -898.150    -551.036
  P      762.357    -896.640    -551.235
  C      760.201    -895.720    -552.328
  O      761.573    -896.050    -552.514
  C      759.647    -895.000    -553.545
  O      760.317    -893.730    -553.746
  C      759.831    -895.760    -554.849
  O      758.946    -896.860    -554.953
  C      759.595    -894.660    -555.877
  O      758.185    -894.430    -556.074
  C      760.246    -893.450    -555.156
  N      761.550    -893.100    -555.732
  C      761.534    -892.510    -557.000
  O      760.483    -892.420    -557.627
  N      762.735    -892.100    -557.532
  C      763.838    -892.350    -556.914
  N      764.989    -891.870    -557.461
  C      763.884    -893.100    -555.637
  C      762.721    -893.410    -555.104
  O      763.821    -896.420    -551.232
  O      761.648    -895.860    -550.015
  H      762.332    -895.320    -549.563
  H      757.771    -895.320    -556.163
  H      764.848    -893.370    -555.195
  H      762.675    -893.970    -554.141
  H      759.591    -892.560    -555.241
  H      760.032    -894.890    -556.852
  H      760.867    -896.120    -554.927
  H      758.584    -894.780    -553.351
  H      764.908    -891.350    -558.300
  H      760.116    -895.060    -551.454
  H      765.824    -891.730    -556.898
  H      759.643    -896.650    -552.123
  P      759.620    -898.330    -555.021
  C      760.752    -898.230    -557.367
  O      759.698    -898.740    -556.586
  O      758.489    -899.280    -554.431
  O      760.899    -898.460    -554.278
  H      758.918    -900.000    -553.910
  H      760.854    -898.860    -558.253
  H      761.711    -898.240    -556.812
  H      760.509    -897.200    -557.656
  H      760.654    -899.525    -550.135
  H      759.934    -897.956    -550.405
  H      761.115    -898.169    -549.135

 3  4  5  6  7  8  9  10  11  12  13  24  27  28  29  30  32 0
 6-311+G(2d,p)
 ****
 34  35 0
 6-311+G(2d,p)
 ****
 1  2  14  15  16  17  18  19  20  21  22  23  25  26 0
 3-21G
 ****
 31  33  36  37  38  39  40  41  42  43  44  45  46 0
 3-21G
 ****


