%nproc=1
%NoSave
%Mem=1900MB
#P OB98/GEN NMR

erre ene a

0 1
  C     -374.856    -648.377     172.423
  O     -373.602    -649.025     172.451
  H     -375.350    -648.614     171.481
  H     -374.731    -647.289     172.492
  H     -375.484    -648.731     173.246
  P     -372.636    -648.787     173.711
  C     -370.531    -649.546     172.419
  O     -371.390    -649.774     173.533
  C     -369.500    -650.671     172.295
  O     -368.697    -650.661     173.503
  C     -370.157    -652.058     172.173
  O     -369.691    -652.805     171.050
  C     -369.955    -652.668     173.562
  O     -369.925    -654.084     173.584
  C     -368.668    -651.996     174.053
  N     -368.538    -651.953     175.502
  C     -367.501    -652.693     176.076
  O     -366.680    -653.361     175.452
  N     -367.424    -652.637     177.447
  C     -368.257    -651.939     178.276
  O     -368.133    -651.932     179.492
  C     -369.345    -651.198     177.613
  C     -369.434    -651.235     176.282
  O     -373.294    -648.845     175.052
  O     -371.992    -647.339     173.439
  H     -370.828    -654.405     173.399
  H     -372.432    -646.676     173.998
  H     -366.680    -653.171     177.873
  H     -370.027    -650.646     178.240
  H     -370.219    -650.696     175.766
  H     -367.785    -652.506     173.658
  H     -370.790    -652.361     174.199
  H     -371.240    -651.975     171.979
  H     -368.844    -650.458     171.450
  H     -370.035    -648.582     172.572
  H     -371.137    -649.501     171.500
  P     -370.395    -652.844     169.618
  C     -369.873    -655.349     169.035
  O     -369.677    -653.978     168.734
  O     -370.618    -651.513     168.976
  O     -371.852    -653.481     169.947
  H     -372.473    -653.072     169.313
  H     -369.319    -655.949     168.343
  H     -370.914    -655.586     168.959
  H     -369.534    -655.548     170.030

 6  7  8  9  10  11  12  13  14  15  16  26  31  32  33  34  35 0
 6-311+G(2d,p)
 ****
 36  37 0
 6-311+G(2d,p)
 ****
 1  2  3  4  5  17  18  19  20  21  22  23  24  25 0
 3-21G
 ****
 27  28  29  30  38  39  40  41  42  43  44  45 0
 3-21G
 ****


