%nproc=1
%NoSave
%Mem=1900MB
#P OB98/GEN NMR

erre ene a

0 1
  C     -592.513     688.265    -340.739
  O     -591.531     689.260    -341.047
  P     -590.522     689.108    -342.302
  C     -591.576     691.124    -343.508
  O     -591.205     689.751    -343.590
  C     -590.675     692.022    -344.354
  O     -589.320     691.981    -343.853
  C     -590.593     691.624    -345.834
  O     -591.732     692.084    -346.531
  C     -589.285     692.297    -346.239
  O     -589.489     693.688    -346.512
  C     -588.407     692.115    -344.992
  N     -584.280     689.897    -342.934
  C     -584.948     691.039    -342.646
  N     -586.038     691.562    -343.240
  C     -586.456     690.769    -344.230
  C     -585.883     689.573    -344.664
  C     -584.743     689.148    -343.976
  N     -584.053     687.989    -344.293
  N     -586.580     689.062    -345.733
  C     -587.578     689.924    -345.937
  N     -587.541     690.965    -345.058
  O     -590.007     687.714    -342.492
  O     -589.323     690.123    -341.981
  H     -590.068     694.053    -345.826
  H     -588.493     689.798    -342.386
  H     -584.546     691.606    -341.792
  H     -588.333     689.805    -346.716
  H     -587.796     692.987    -344.795
  H     -588.848     691.851    -347.146
  H     -590.500     690.539    -345.928
  H     -591.023     693.056    -344.243
  H     -591.512     691.422    -342.460
  H     -583.238     687.757    -343.764
  H     -584.359     687.444    -345.086
  H     -592.608     691.214    -343.844
  P     -592.249     691.279    -347.826
  C     -594.346     690.565    -346.516
  O     -593.249     690.127    -347.321
  O     -591.182     690.818    -348.759
  O     -593.232     692.320    -348.537
  H     -593.234     692.149    -349.508
  H     -594.001     690.725    -345.489
  H     -595.106     689.773    -346.526
  H     -594.761     691.490    -346.915
  H     -593.068     688.567    -339.875
  H     -592.026     687.332    -340.543
  H     -593.179     688.152    -341.569

 3  4  5  6  7  8  9  10  11  12  22  25  29  30  31  32 0
 6-311+G(2d,p)
 ****
 33  36  37 0
 6-311+G(2d,p)
 ****
 1  2  13  14  15  16  17  18  19  20  21  23  24  26 0
 3-21G
 ****
 27  28  34  35  38  39  40  41  42  43  44  45  46  47  48 0
 3-21G
 ****


