%nproc=1
%NoSave
%Mem=1900MB
#P OB98/GEN NMR

erre ene a

0 1
  C       60.462    -193.368    -288.975
  O       60.049    -192.241    -288.227
  H       60.645    -193.057    -290.006
  H       59.673    -194.132    -288.969
  H       61.387    -193.788    -288.559
  P       59.890    -192.437    -286.643
  C       58.485    -194.101    -285.172
  O       58.633    -193.421    -286.407
  C       57.219    -194.957    -285.203
  O       57.420    -196.174    -285.947
  C       56.768    -195.439    -283.830
  O       56.236    -194.401    -283.034
  C       55.744    -196.497    -284.231
  O       54.498    -195.891    -284.603
  C       56.435    -197.137    -285.463
  N       57.044    -198.422    -285.170
  C       56.155    -199.506    -285.088
  O       54.946    -199.337    -285.273
  N       56.659    -200.750    -284.763
  C       57.930    -200.895    -284.568
  N       58.374    -202.145    -284.242
  C       58.902    -199.786    -284.667
  C       58.393    -198.590    -284.961
  O       59.324    -191.016    -286.172
  O       61.125    -192.882    -285.929
  H       54.175    -195.422    -283.806
  H       58.529    -190.736    -286.657
  H       59.962    -199.966    -284.505
  H       59.042    -197.728    -285.054
  H       55.713    -197.272    -286.281
  H       55.539    -197.192    -283.423
  H       57.599    -195.949    -283.321
  H       56.430    -194.374    -285.701
  H       57.666    -202.875    -284.165
  H       58.459    -193.398    -284.335
  H       59.325    -202.376    -284.035
  H       59.368    -194.738    -285.039
  P       56.485    -194.389    -281.442
  C       55.752    -196.017    -279.596
  O       55.391    -195.376    -280.810
  O       56.533    -193.037    -280.825
  O       57.845    -195.231    -281.280
  H       57.797    -196.149    -281.609
  H       54.949    -196.646    -279.272
  H       55.950    -195.278    -278.848
  H       56.629    -196.610    -279.753

 6  7  8  9  10  11  12  13  14  15  16  26  30  31  32  33  35 0
 6-311+G(2d,p)
 ****
 37  38 0
 6-311+G(2d,p)
 ****
 1  2  3  4  5  17  18  19  20  21  22  23  24  25 0
 3-21G
 ****
 27  28  29  34  36  39  40  41  42  43  44  45  46 0
 3-21G
 ****


