%nproc=1
%NoSave
%Mem=1900MB
#P OB98/GEN NMR

erre ene a

0 1
  C     -419.917     125.108    -114.459
  O     -420.493     124.043    -113.729
  H     -420.486     125.273    -115.377
  H     -419.962     126.017    -113.851
  H     -418.873     124.895    -114.700
  P     -420.270     122.560    -114.298
  C     -421.179     121.910    -111.952
  O     -421.103     121.574    -113.331
  C     -422.284     121.106    -111.267
  O     -423.571     121.559    -111.781
  C     -422.194     119.587    -111.496
  O     -422.569     118.923    -110.284
  C     -423.262     119.328    -112.549
  O     -423.760     117.994    -112.512
  C     -424.302     120.384    -112.180
  N     -429.165     121.027    -113.536
  C     -428.555     121.025    -112.332
  N     -427.240     120.901    -112.059
  C     -426.528     120.833    -113.199
  C     -427.001     120.826    -114.500
  C     -428.399     120.913    -114.651
  N     -429.033     120.843    -115.873
  N     -425.959     120.686    -115.395
  C     -424.879     120.585    -114.646
  N     -425.170     120.665    -113.313
  O     -418.744     122.269    -113.906
  O     -420.515     122.383    -115.761
  H     -423.988     117.769    -111.590
  H     -418.158     122.592    -114.615
  H     -429.215     121.131    -111.469
  H     -423.873     120.421    -115.017
  H     -424.941     120.074    -111.344
  H     -422.845     119.515    -113.546
  H     -421.203     119.243    -111.817
  H     -422.270     121.336    -110.194
  H     -421.407     122.980    -111.855
  H     -430.038     120.803    -115.876
  H     -428.487     120.651    -116.696
  H     -420.213     121.708    -111.476
  P     -421.446     118.781    -109.146
  C     -423.467     118.503    -107.523
  O     -422.126     118.149    -107.839
  O     -421.168     120.302    -108.716
  O     -420.200     118.098    -109.603
  H     -420.235     120.411    -108.453
  H     -423.767     117.999    -106.628
  H     -424.111     118.215    -108.328
  H     -423.531     119.561    -107.375

 6  7  8  9  10  11  12  13  14  15  25  28  32  33  34  35 0
 6-311+G(2d,p)
 ****
 36  39  40 0
 6-311+G(2d,p)
 ****
 1  2  3  4  5  16  17  18  19  20  21  22  23  24 0
 3-21G
 ****
 26  27  29  30  31  37  38  41  42  43  44  45  46  47 0
 3-21G
 ****
 48 0
 3-21G
 ****


