%nproc=1
%NoSave
%Mem=1900MB
#P OB98/GEN NMR

erre ene a

0 1
  C       32.428     -10.432       9.414
  O       33.256     -11.458       8.907
  H       32.385     -10.485      10.504
  H       32.847      -9.464       9.126
  H       31.420     -10.519       8.997
  P       32.831     -12.967       9.251
  C       34.231     -12.742      11.433
  O       33.959     -13.500      10.262
  C       34.841     -13.654      12.492
  O       35.134     -12.898      13.689
  C       33.921     -14.787      12.932
  O       33.953     -15.890      12.043
  C       34.534     -15.143      14.275
  O       35.733     -15.912      14.075
  C       34.879     -13.754      14.836
  N       32.541     -13.815      19.389
  C       33.618     -14.481      18.919
  N       34.190     -14.393      17.702
  C       33.545     -13.500      16.936
  C       32.438     -12.741      17.280
  C       31.924     -12.928      18.574
  N       30.808     -12.275      19.046
  N       32.043     -11.950      16.219
  C       32.909     -12.215      15.261
  N       33.815     -13.170      15.636
  O       33.149     -13.770       7.904
  O       31.432     -13.157       9.730
  H       36.342     -15.359      13.550
  H       32.723     -14.648       7.923
  H       34.077     -15.180      19.612
  H       32.915     -11.754      14.282
  H       35.783     -13.762      15.454
  H       33.866     -15.744      14.898
  H       32.896     -14.434      13.090
  H       35.790     -14.044      12.105
  H       33.294     -12.317      11.809
  H       30.432     -12.584      19.928
  H       30.259     -11.726      18.402
  H       34.923     -11.931      11.189
  P       32.579     -16.296      11.316
  C       32.660     -18.642      12.427
  O       32.574     -17.897      11.218
  O       32.826     -15.834       9.805
  O       31.356     -15.675      11.906
  H       31.991     -15.550       9.387
  H       32.645     -19.688      12.203
  H       31.828     -18.400      13.055
  H       33.571     -18.398      12.932

 6  7  8  9  10  11  12  13  14  15  25  28  32  33  34  35 0
 6-311+G(2d,p)
 ****
 36  39  40 0
 6-311+G(2d,p)
 ****
 1  2  3  4  5  16  17  18  19  20  21  22  23  24 0
 3-21G
 ****
 26  27  29  30  31  37  38  41  42  43  44  45  46  47 0
 3-21G
 ****
 48 0
 3-21G
 ****


