%nproc=1
%NoSave
%Mem=1900MB
#P OB98/GEN NMR

erre ene a

0 1
  C      -24.595     114.271     104.115
  O      -24.141     114.652     102.832
  H      -25.588     113.818     104.045
  H      -23.902     113.533     104.530
  H      -24.628     115.140     104.779
  P      -25.045     115.709     102.031
  C      -25.785     114.194     100.049
  O      -24.954     115.258     100.493
  C      -25.477     113.889      98.587
  O      -25.876     115.001      97.753
  C      -23.995     113.669      98.304
  O      -23.572     112.352      98.611
  C      -23.950     113.929      96.809
  O      -24.469     112.788      96.102
  C      -24.908     115.123      96.673
  N      -22.280     118.696      94.118
  C      -22.857     117.542      93.718
  N      -23.557     116.657      94.456
  C      -23.645     117.065      95.731
  C      -23.116     118.220      96.284
  C      -22.397     119.060      95.416
  N      -21.780     120.221      95.827
  N      -23.396     118.286      97.635
  C      -24.098     117.199      97.885
  N      -24.248     116.413      96.773
  O      -24.177     117.054     102.063
  O      -26.435     115.898     102.539
  H      -25.431     112.766      96.264
  H      -24.725     117.818     101.800
  H      -22.736     117.296      92.666
  H      -24.509     116.931      98.850
  H      -25.463     115.113      95.728
  H      -22.936     114.102      96.440
  H      -23.374     114.415      98.815
  H      -26.069     113.017      98.284
  H      -26.835     114.494     100.149
  H      -21.167     120.674      95.167
  H      -21.736     120.424      96.814
  H      -25.603     113.308     100.665
  P      -22.147     112.181      99.337
  C      -21.920     109.900      98.115
  O      -21.830     110.607      99.345
  O      -22.486     112.497     100.867
  O      -21.067     113.061      98.800
  H      -21.725     112.914     101.312
  H      -21.683     108.869      98.278
  H      -21.230     110.318      97.412
  H      -22.915     109.980      97.729

 6  7  8  9  10  11  12  13  14  15  25  28  32  33  34  35 0
 6-311+G(2d,p)
 ****
 36  39  40 0
 6-311+G(2d,p)
 ****
 1  2  3  4  5  16  17  18  19  20  21  22  23  24 0
 3-21G
 ****
 26  27  29  30  31  37  38  41  42  43  44  45  46  47 0
 3-21G
 ****
 48 0
 3-21G
 ****


