%nproc=1
%NoSave
%Mem=1900MB
#P OB98/GEN NMR

erre ene a

0 1
  C      -83.874     205.726     223.803
  O      -82.876     206.621     224.246
  H      -84.475     206.220     223.031
  H      -84.534     205.453     224.634
  H      -83.425     204.824     223.373
  P      -81.774     206.048     225.268
  C      -81.198     208.362     226.311
  O      -80.746     207.250     225.546
  C      -80.919     209.678     225.574
  O      -81.968     209.886     224.587
  C      -80.883     210.898     226.495
  O      -79.854     211.783     226.029
  C      -82.237     211.545     226.276
  O      -82.233     212.948     226.570
  C      -82.532     211.193     224.816
  N      -83.961     211.220     224.534
  C      -84.486     212.437     224.092
  O      -83.761     213.421     223.969
  N      -85.846     212.536     223.859
  C      -86.611     211.521     224.126
  N      -87.946     211.683     223.904
  C      -86.112     210.235     224.658
  C      -84.790     210.162     224.829
  O      -80.921     205.039     224.364
  O      -82.319     205.398     226.493
  H      -82.033     213.062     227.527
  H      -80.583     204.293     224.899
  H      -86.789     209.435     224.893
  H      -84.326     209.256     225.221
  H      -82.021     211.898     224.144
  H      -82.983     211.079     226.939
  H      -80.698     210.649     227.539
  H      -79.969     209.567     225.021
  H      -88.249     212.581     223.552
  H      -80.669     208.371     227.267
  H      -88.641     210.982     224.122
  H      -82.268     208.255     226.504
  P      -78.867     212.381     227.151
  C      -79.171     214.935     226.732
  O      -78.319     213.804     226.616
  O      -77.584     211.427     227.060
  O      -79.460     212.408     228.521
  H      -77.552     210.855     227.845
  H      -78.675     215.797     226.339
  H      -79.408     215.099     227.762
  H      -80.072     214.761     226.182

 6  7  8  9  10  11  12  13  14  15  16  26  30  31  32  33  35 0
 6-311+G(2d,p)
 ****
 37  38 0
 6-311+G(2d,p)
 ****
 1  2  3  4  5  17  18  19  20  21  22  23  24  25 0
 3-21G
 ****
 27  28  29  34  36  39  40  41  42  43  44  45  46 0
 3-21G
 ****


