%nproc=1
%NoSave
%Mem=1900MB
#P OB98/GEN NMR

erre ene a

0 1
  C       84.082    1087.115    -893.500
  O       85.477    1086.901    -893.600
  H       83.693    1087.316    -894.520
  H       83.889    1087.994    -892.890
  H       83.584    1086.243    -893.100
  P       86.240    1086.505    -892.240
  C       86.702    1083.999    -892.790
  O       87.254    1085.310    -892.620
  C       87.732    1083.049    -893.430
  O       87.851    1083.353    -894.860
  C       89.163    1083.180    -892.840
  O       89.749    1081.866    -892.840
  C       89.890    1084.047    -893.860
  O       91.307    1083.899    -893.770
  C       89.242    1083.531    -895.170
  N       92.089    1084.344    -899.220
  C       92.105    1083.279    -898.340
  N       92.997    1082.284    -898.530
  N       91.281    1083.203    -897.320
  C       90.402    1084.252    -897.230
  C       90.339    1085.374    -898.070
  C       91.248    1085.442    -899.170
  O       91.308    1086.349    -900.000
  N       89.340    1086.225    -897.630
  C       88.837    1085.617    -896.550
  N       89.461    1084.444    -896.270
  O       85.086    1085.779    -891.390
  O       86.854    1087.653    -891.480
  H       91.702    1084.333    -894.570
  H       84.648    1086.422    -890.800
  H       92.748    1084.340    -900.000
  H       88.023    1086.049    -895.940
  H       89.652    1082.559    -895.460
  H       89.650    1085.108    -893.700
  H       93.599    1082.255    -899.340
  H       89.194    1083.591    -891.820
  H       92.972    1081.492    -897.930
  H       87.360    1082.022    -893.350
  H       85.820    1084.080    -893.460
  H       86.393    1083.625    -891.800
  P       91.101    1081.646    -892.000
  C       90.168    1080.009    -890.180
  O       91.023    1080.192    -891.300
  O       90.896    1082.635    -890.750
  O       92.388    1081.952    -892.760
  H       91.776    1082.937    -890.410
  H       90.236    1078.996    -889.841
  H       89.159    1080.224    -890.463
  H       90.466    1080.669    -889.392

 6  7  8  9  10  11  12  13  14  15  26  29  33  34 0
 6-311+G(2d,p)
 ****
 36  38  39  40  41 0
 6-311+G(2d,p)
 ****
 1  2  3  4  5  16  17  18  19  20  21  22  23  24  25 0
 3-21G
 ****
 27  28  30  31  32  35  37  42  43  44  45  46  47 0
 3-21G
 ****
 48  49 0
 3-21G
 ****


