%nproc=1
%NoSave
%Mem=1900MB
#P OB98/GEN NMR

erre ene a

0 1
  C       41.589      74.788     134.026
  O       41.914      75.651     135.102
  P       41.313      75.422     136.576
  C       41.698      73.567     138.338
  O       41.713      73.917     136.965
  C       41.427      72.070     138.503
  O       40.066      71.796     138.076
  C       42.360      71.164     137.688
  O       42.584      69.979     138.460
  C       41.535      70.851     136.454
  O       41.963      69.668     135.795
  C       40.128      70.772     137.060
  N       39.079      70.957     136.064
  C       38.776      69.878     135.233
  O       39.392      68.816     135.324
  N       37.771      70.023     134.307
  C       37.183      71.170     134.164
  N       36.156      71.248     133.276
  C       37.547      72.366     134.948
  C       38.476      72.182     135.883
  O       39.864      75.738     136.717
  O       42.267      76.276     137.529
  H       41.965      68.938     136.444
  H       41.998      77.227     137.592
  H       37.047      73.310     134.773
  H       38.791      72.997     136.521
  H       39.989      69.814     137.571
  H       41.612      71.680     135.742
  H       43.321      71.638     137.465
  H       41.490      71.822     139.570
  H       35.822      70.370     132.888
  H       40.896      74.127     138.830
  H       35.459      71.982     133.345
  H       42.649      73.848     138.803
  P       43.955      69.170     138.235
  C       46.420      69.536     138.954
  O       45.167      70.121     138.672
  O       44.078      69.185     136.633
  O       43.985      67.762     138.732
  H       44.614      68.420     136.350
  H       47.123      70.329     139.225
  H       46.808      69.015     138.073
  H       46.339      68.839     139.792
  H       42.092      75.117     133.141
  H       40.532      74.804     133.863
  H       41.898      73.791     134.262

 3  4  5  6  7  8  9  10  11  12  13  23  27  28  29  30  32 0
 6-311+G(2d,p)
 ****
 34  35 0
 6-311+G(2d,p)
 ****
 1  2  14  15  16  17  18  19  20  21  22  24  25  26 0
 3-21G
 ****
 31  33  36  37  38  39  40  41  42  43  44  45  46 0
 3-21G
 ****


