%nproc=1
%NoSave
%Mem=1900MB
#P OB98/GEN NMR

erre ene a

0 1
  C        2.954     408.466      77.490
  O        4.296     408.145      77.817
  P        5.444     409.254      77.758
  C        5.940     409.387      75.183
  O        6.345     408.979      76.472
  C        7.185     409.604      74.316
  O        7.993     410.666      74.862
  C        8.046     408.345      74.246
  O        7.729     407.583      73.092
  C        9.455     408.909      74.229
  O        9.813     409.331      72.900
  C        9.312     410.134      75.161
  N        9.392     409.914      76.618
  C       10.458     409.187      77.145
  O       11.373     408.729      76.469
  N       10.422     408.979      78.501
  C        9.469     409.455      79.356
  O        9.315     409.065      80.507
  C        8.538     410.432      78.783
  C        8.527     410.596      77.461
  O        6.401     408.849      78.974
  O        4.975     410.669      77.861
  H        9.163     410.004      72.629
  H        6.211     409.398      79.759
  H       11.114     408.333      78.868
  H        7.856     410.942      79.450
  H        7.818     411.286      77.010
  H       10.047     410.906      74.909
  H       10.186     408.152      74.513
  H        7.919     407.747      75.157
  H        6.868     409.904      73.309
  H        5.354     410.310      75.249
  H        5.295     408.625      74.735
  P        7.254     406.065      73.252
  C        9.425     404.705      73.274
  O        8.359     405.194      72.485
  O        5.838     405.789      72.867
  O        7.518     405.760      74.803
  H        6.687     405.862      75.308
  H       10.001     403.989      72.679
  H        9.044     404.201      74.166
  H       10.079     405.530      73.564
  H        2.344     407.593      77.591
  H        2.907     408.819      76.481
  H        2.598     409.228      78.151

 3  4  5  6  7  8  9  10  11  12  13  23  28  29  30  31  32 0
 6-311+G(2d,p)
 ****
 33  34 0
 6-311+G(2d,p)
 ****
 1  2  14  15  16  17  18  19  20  21  22  24  25  26  27 0
 3-21G
 ****
 35  36  37  38  39  40  41  42  43  44  45 0
 3-21G
 ****


