%nproc=1
%NoSave
%Mem=1900MB
#P OB98/GEN NMR

erre ene a

0 1
  C     -422.889     -75.436     364.387
  O     -423.590     -74.541     363.510
  P     -422.750     -73.284     362.969
  C     -423.609     -71.509     364.655
  O     -422.502     -72.279     364.196
  C     -423.543     -71.244     366.158
  O     -422.280     -70.611     366.521
  C     -424.662     -70.337     366.680
  O     -424.995     -70.784     368.002
  C     -423.988     -68.986     366.780
  O     -424.694     -68.097     367.645
  C     -422.603     -69.418     367.285
  N     -420.397     -65.412     369.452
  C     -421.499     -66.167     369.854
  N     -422.049     -65.817     371.022
  N     -421.999     -67.157     369.159
  C     -421.305     -67.412     368.017
  C     -420.208     -66.767     367.517
  C     -419.677     -65.644     368.271
  O     -418.712     -64.954     367.963
  N     -419.778     -67.326     366.335
  C     -420.664     -68.288     366.095
  N     -421.578     -68.407     367.115
  O     -423.794     -72.513     362.032
  O     -421.514     -73.671     362.210
  H     -424.069     -67.405     367.940
  H     -423.626     -72.726     361.098
  H     -420.076     -64.660     370.015
  H     -420.672     -68.926     365.241
  H     -422.615     -69.684     368.356
  H     -423.914     -68.520     365.782
  H     -421.680     -65.099     371.638
  H     -425.564     -70.320     366.051
  H     -422.825     -66.377     371.379
  H     -423.580     -72.217     366.673
  H     -424.545     -72.034     364.419
  H     -423.644     -70.566     364.085
  P     -426.316     -71.691     368.185
  C     -427.885     -69.641     368.534
  O     -427.558     -70.783     367.747
  O     -426.469     -71.777     369.777
  O     -426.233     -73.044     367.569
  H     -426.770     -72.667     370.028
  H     -428.393     -68.921     367.887
  H     -426.978     -69.184     368.952
  H     -428.551     -69.942     369.333
  H     -423.542     -76.230     364.682
  H     -422.562     -74.902     365.255
  H     -422.041     -75.843     363.878

 3  4  5  6  7  8  9  10  11  12  23  26  30  31 0
 6-311+G(2d,p)
 ****
 33  35  36  37  38 0
 6-311+G(2d,p)
 ****
 1  2  13  14  15  16  17  18  19  20  21  22  24  25 0
 3-21G
 ****
 27  28  29  32  34  39  40  41  42  43  44  45  46  47  48  49 0
 3-21G
 ****


