%nproc=1
%NoSave
%Mem=1900MB
#P OB98/GEN NMR

erre ene a

0 1
  C     -191.470    -206.876      40.228
  O     -190.288    -206.101      40.265
  P     -189.734    -205.426      38.924
  C     -190.809    -203.093      38.997
  O     -190.840    -204.388      38.405
  C     -190.766    -202.017      37.914
  O     -189.444    -201.926      37.347
  C     -191.699    -202.283      36.739
  O     -193.039    -201.989      37.081
  C     -191.097    -201.374      35.675
  O     -191.549    -200.021      35.850
  C     -189.595    -201.482      35.980
  N     -187.379    -201.925      31.408
  C     -188.121    -200.940      31.957
  N     -188.712    -200.913      33.172
  C     -188.492    -202.064      33.826
  C     -187.786    -203.171      33.382
  C     -187.189    -203.065      32.114
  N     -186.380    -204.037      31.569
  N     -187.812    -204.172      34.333
  C     -188.525    -203.682      35.325
  N     -188.901    -202.390      35.091
  O     -189.227    -206.378      37.892
  O     -188.557    -204.470      39.438
  H     -191.242    -199.723      36.726
  H     -187.715    -204.747      39.032
  H     -188.250    -200.052      31.345
  H     -188.780    -204.213      36.233
  H     -189.096    -200.509      35.907
  H     -191.367    -201.678      34.660
  H     -191.603    -203.326      36.416
  H     -191.000    -201.053      38.383
  H     -189.916    -203.023      39.625
  H     -185.888    -203.800      30.722
  H     -185.986    -204.740      32.191
  H     -191.694    -202.962      39.627
  P     -194.214    -202.304      36.041
  C     -194.287    -204.757      36.783
  O     -194.126    -203.866      35.697
  O     -194.295    -201.394      34.861
  O     -195.540    -202.214      36.935
  H     -196.280    -201.892      36.386
  H     -193.360    -204.801      37.361
  H     -194.509    -205.753      36.391
  H     -195.109    -204.440      37.431
  H     -191.686    -207.244      41.209
  H     -191.335    -207.700      39.559
  H     -192.283    -206.270      39.888

 3  4  5  6  7  8  9  10  11  12  22  25  29  30  31  32 0
 6-311+G(2d,p)
 ****
 33  36  37 0
 6-311+G(2d,p)
 ****
 1  2  13  14  15  16  17  18  19  20  21  23  24  26 0
 3-21G
 ****
 27  28  34  35  38  39  40  41  42  43  44  45  46  47  48 0
 3-21G
 ****


