%nproc=1
%NoSave
%Mem=1900MB
#P OB98/GEN NMR

erre ene a

0 1
  C     -391.470    -164.459     294.679
  O     -392.746    -165.009     294.951
  H     -391.591    -163.399     294.432
  H     -391.017    -164.967     293.824
  H     -390.828    -164.547     295.559
  P     -392.784    -166.562     295.358
  C     -393.355    -165.806     297.767
  O     -392.488    -166.564     296.934
  C     -393.544    -166.501     299.118
  O     -392.293    -166.575     299.827
  C     -394.511    -165.797     300.057
  O     -395.858    -166.108     299.731
  C     -394.102    -166.401     301.396
  O     -394.685    -167.711     301.537
  C     -392.573    -166.524     301.255
  N     -390.231    -164.817     305.500
  C     -391.051    -165.867     305.285
  N     -391.674    -166.234     304.146
  C     -391.373    -165.387     303.145
  C     -390.557    -164.270     303.212
  C     -389.957    -163.993     304.455
  N     -389.113    -162.921     304.667
  N     -390.485    -163.636     301.984
  C     -391.213    -164.392     301.176
  N     -391.797    -165.443     301.842
  O     -391.942    -167.469     294.527
  O     -394.359    -166.854     295.305
  H     -395.656    -167.611     301.458
  H     -394.859    -166.096     295.652
  H     -391.233    -166.506     306.148
  H     -391.328    -164.229     300.114
  H     -392.195    -167.455     301.697
  H     -394.447    -165.807     302.245
  H     -394.330    -164.712     300.085
  H     -393.867    -167.534     298.925
  H     -394.328    -165.670     297.282
  H     -388.873    -162.702     305.619
  H     -389.013    -162.246     303.925
  H     -392.899    -164.818     297.912
  P     -397.004    -164.987     299.806
  C     -396.646    -164.009     297.452
  O     -396.527    -163.782     298.851
  O     -397.390    -164.573     301.186
  O     -398.235    -165.619     299.006
  H     -399.073    -165.384     299.443
  H     -396.302    -163.147     296.920
  H     -397.671    -164.194     297.207
  H     -396.055    -164.857     297.177

 6  7  8  9  10  11  12  13  14  15  25  28  32  33  34  35 0
 6-311+G(2d,p)
 ****
 36  39  40 0
 6-311+G(2d,p)
 ****
 1  2  3  4  5  16  17  18  19  20  21  22  23  24 0
 3-21G
 ****
 26  27  29  30  31  37  38  41  42  43  44  45  46  47 0
 3-21G
 ****
 48 0
 3-21G
 ****


