%nproc=1
%NoSave
%Mem=1900MB
#P OB98/GEN NMR

erre ene a

0 1
  C     -826.102     988.932     717.543
  O     -826.967     988.397     716.555
  P     -828.423     987.924     717.040
  C     -827.987     985.409     716.540
  O     -828.749     986.561     716.255
  C     -828.467     984.227     715.703
  O     -829.825     983.921     716.039
  C     -828.447     984.471     714.190
  O     -827.140     984.411     713.669
  C     -829.383     983.357     713.732
  O     -828.679     982.113     713.683
  C     -830.454     983.344     714.859
  N     -834.734     983.415     712.053
  C     -833.736     982.511     712.145
  N     -832.610     982.574     712.903
  C     -832.592     983.694     713.618
  C     -833.537     984.724     713.619
  C     -834.640     984.549     712.786
  N     -835.669     985.468     712.712
  N     -833.143     985.729     714.488
  C     -832.011     985.335     714.986
  N     -831.636     984.113     714.513
  O     -829.404     988.997     716.363
  O     -828.613     987.861     718.539
  H     -827.897     982.241     713.090
  H     -830.174     989.178     716.933
  H     -833.847     981.608     711.515
  H     -831.421     985.894     715.708
  H     -830.761     982.325     715.104
  H     -829.807     983.545     712.726
  H     -828.900     985.458     713.966
  H     -827.833     983.346     715.947
  H     -828.063     985.152     717.609
  H     -836.366     985.326     711.978
  H     -835.544     986.366     713.152
  H     -826.925     985.628     716.341
  P     -826.419     985.789     713.330
  C     -826.757     985.838     710.784
  O     -825.849     985.569     711.846
  O     -825.095     985.720     714.238
  O     -827.274     987.006     713.520
  H     -824.651     984.857     714.123
  H     -826.231     985.696     709.823
  H     -827.110     986.877     710.828
  H     -827.591     985.135     710.824
  H     -825.171     989.206     717.092
  H     -825.928     988.197     718.301
  H     -826.554     989.797     717.982

 3  4  5  6  7  8  9  10  11  12  22  25  29  30  31  32 0
 6-311+G(2d,p)
 ****
 33  36  37 0
 6-311+G(2d,p)
 ****
 1  2  13  14  15  16  17  18  19  20  21  23  24  26 0
 3-21G
 ****
 27  28  34  35  38  39  40  41  42  43  44  45  46  47  48 0
 3-21G
 ****


