%nproc=1
%NoSave
%Mem=1900MB
#P OB98/GEN NMR

erre ene a

0 1
  C       30.087      26.558      -7.158
  O       30.582      25.292      -6.783
  H       30.590      27.320      -6.557
  H       29.013      26.606      -6.960
  H       30.276      26.764      -8.214
  P       30.363      24.056      -7.774
  C       28.087      23.378      -6.766
  O       29.429      22.986      -7.025
  C       27.329      22.320      -5.962
  O       25.933      22.677      -5.861
  C       27.367      20.946      -6.630
  O       28.519      20.171      -6.358
  C       26.116      20.287      -6.057
  O       26.394      19.681      -4.783
  C       25.156      21.467      -5.891
  N       20.826      19.604      -7.858
  C       21.546      19.160      -6.766
  N       21.084      18.045      -6.159
  N       22.627      19.750      -6.329
  C       23.023      20.795      -7.093
  C       22.400      21.317      -8.204
  C       21.172      20.690      -8.647
  O       20.500      21.040      -9.613
  N       23.096      22.387      -8.715
  C       24.173      22.461      -7.960
  N       24.161      21.533      -6.946
  O       31.790      23.322      -7.782
  O       29.936      24.417      -9.164
  H       25.547      19.458      -4.358
  H       31.910      22.838      -8.618
  H       19.985      19.128      -8.133
  H       24.975      23.181      -8.088
  H       24.613      21.412      -4.940
  H       25.742      19.492      -6.709
  H       20.326      17.493      -6.529
  H       27.237      21.044      -7.713
  H       21.719      17.544      -5.536
  H       27.730      22.286      -4.943
  H       27.609      23.522      -7.737
  H       28.067      24.340      -6.247
  P       29.235      19.358      -7.536
  C       27.467      17.535      -8.106
  O       28.685      17.854      -7.468
  O       30.744      19.235      -7.016
  O       29.161      19.999      -8.878
  H       31.294      19.938      -7.410
  H       27.250      16.497      -7.963
  H       27.548      17.741      -9.153
  H       26.679      18.125      -7.686

 6  7  8  9  10  11  12  13  14  15  26  29  33  34 0
 6-311+G(2d,p)
 ****
 36  38  39  40  41 0
 6-311+G(2d,p)
 ****
 1  2  3  4  5  16  17  18  19  20  21  22  23  24  25 0
 3-21G
 ****
 27  28  30  31  32  35  37  42  43  44  45  46  47 0
 3-21G
 ****
 48  49 0
 3-21G
 ****


