%nproc=1
%NoSave
%Mem=1900MB
#P OB98/GEN NMR

erre ene a

0 1
  C     -448.881    1154.449    -101.102
  O     -449.956    1154.864    -100.225
  P     -451.422    1155.189    -100.787
  C     -451.181    1157.477    -101.912
  O     -451.186    1156.056    -102.105
  C     -451.578    1158.180    -103.225
  O     -450.603    1157.842    -104.241
  C     -452.922    1157.774    -103.811
  O     -454.041    1158.505    -103.288
  C     -452.728    1158.195    -105.266
  O     -452.907    1159.598    -105.411
  C     -451.283    1157.800    -105.529
  N     -451.864    1155.027    -109.799
  C     -452.038    1156.348    -109.536
  N     -451.921    1157.004    -108.362
  C     -451.429    1156.171    -107.416
  C     -451.185    1154.820    -107.522
  C     -451.376    1154.229    -108.803
  N     -451.183    1152.899    -109.070
  N     -450.753    1154.295    -106.326
  C     -450.728    1155.328    -105.511
  N     -451.112    1156.487    -106.136
  O     -452.354    1155.765     -99.775
  O     -451.930    1153.784    -101.372
  H     -453.724    1159.849    -104.949
  H     -452.922    1153.805    -101.486
  H     -452.406    1156.950    -110.381
  H     -450.437    1155.277    -104.457
  H     -450.754    1158.525    -106.191
  H     -453.438    1157.720    -105.946
  H     -453.068    1156.702    -103.768
  H     -451.518    1159.256    -103.058
  H     -450.151    1157.778    -101.667
  H     -451.246    1152.614    -110.036
  H     -450.678    1152.352    -108.384
  H     -451.852    1157.766    -101.114
  P     -455.486    1157.765    -103.405
  C     -456.612    1159.319    -105.161
  O     -455.999    1158.095    -104.898
  O     -456.413    1158.101    -102.298
  O     -455.093    1156.215    -103.463
  H     -454.642    1155.939    -104.277
  H     -456.744    1159.406    -106.277
  H     -456.007    1160.142    -104.850
  H     -457.592    1159.380    -104.701
  H     -447.994    1154.285    -100.526
  H     -448.698    1155.213    -101.828
  H     -449.156    1153.543    -101.599

 3  4  5  6  7  8  9  10  11  12  22  25  29  30  31  32 0
 6-311+G(2d,p)
 ****
 33  36  37 0
 6-311+G(2d,p)
 ****
 1  2  13  14  15  16  17  18  19  20  21  23  24  26 0
 3-21G
 ****
 27  28  34  35  38  39  40  41  42  43  44  45  46  47  48 0
 3-21G
 ****


