%nproc=1
%NoSave
%Mem=1900MB
#P OB98/GEN NMR

erre ene a

0 1
  C       21.033     104.940      53.390
  O       20.923     106.074      52.552
  H       20.073     104.774      53.886
  H       21.799     105.105      54.153
  H       21.284     104.057      52.798
  P       22.269     106.545      51.813
  C       22.400     108.544      53.485
  O       23.035     107.398      52.938
  C       23.440     109.624      53.766
  O       24.354     109.194      54.798
  C       24.314     109.973      52.568
  O       23.666     110.828      51.640
  C       25.469     110.667      53.265
  O       25.070     111.994      53.654
  C       25.659     109.760      54.502
  N       26.643     108.698      54.291
  C       27.986     109.089      54.233
  O       28.300     110.272      54.348
  N       28.946     108.129      54.014
  C       28.599     106.888      53.874
  N       29.588     105.982      53.645
  C       27.199     106.431      53.944
  C       26.285     107.376      54.150
  O       21.766     107.678      50.800
  O       23.080     105.466      51.177
  H       25.865     112.439      54.000
  H       22.543     108.122      50.382
  H       26.957     105.386      53.810
  H       25.235     107.114      54.211
  H       25.964     110.348      55.377
  H       26.353     110.768      52.634
  H       24.695     109.074      52.070
  H       22.912     110.509      54.146
  H       30.531     106.333      53.540
  H       21.899     108.250      54.413
  H       29.400     105.033      53.346
  H       21.655     108.931      52.783
  P       23.857     110.512      50.077
  C       25.299     112.601      49.528
  O       25.243     111.185      49.629
  O       22.757     111.443      49.385
  O       23.693     109.073      49.699
  H       22.336     110.991      48.629
  H       26.280     112.898      49.222
  H       25.076     113.036      50.480
  H       24.583     112.936      48.806

 6  7  8  9  10  11  12  13  14  15  16  26  30  31  32  33  35 0
 6-311+G(2d,p)
 ****
 37  38 0
 6-311+G(2d,p)
 ****
 1  2  3  4  5  17  18  19  20  21  22  23  24  25 0
 3-21G
 ****
 27  28  29  34  36  39  40  41  42  43  44  45  46 0
 3-21G
 ****


