%nproc=1
%NoSave
%Mem=1900MB
#P OB98/GEN NMR

erre ene a

0 1
  C     -302.136    -527.257      89.179
  O     -303.049    -526.746      90.128
  P     -304.629    -526.881      89.984
  C     -304.848    -529.287      90.942
  O     -304.989    -528.441      89.803
  C     -306.197    -529.726      91.537
  O     -306.902    -528.563      92.019
  C     -307.074    -530.348      90.448
  O     -306.918    -531.711      90.090
  C     -308.502    -529.939      90.807
  O     -309.216    -530.966      91.504
  C     -308.301    -528.718      91.713
  N     -308.934    -523.740      92.428
  C     -308.125    -524.619      93.120
  N     -307.575    -524.144      94.260
  N     -307.908    -525.859      92.748
  C     -308.610    -526.204      91.641
  C     -309.425    -525.416      90.853
  C     -309.626    -524.051      91.262
  O     -310.388    -523.250      90.719
  N     -310.026    -526.132      89.855
  C     -309.608    -527.367      90.051
  N     -308.781    -527.475      91.142
  O     -305.315    -525.885      89.095
  O     -305.119    -526.595      91.488
  H     -310.073    -530.596      91.773
  H     -305.976    -526.126      91.441
  H     -309.119    -522.821      92.813
  H     -309.901    -528.225      89.447
  H     -308.820    -528.852      92.659
  H     -309.078    -529.726      89.889
  H     -307.836    -523.259      94.662
  H     -306.855    -529.808      89.516
  H     -307.128    -524.810      94.884
  H     -306.059    -530.376      92.406
  H     -304.255    -528.742      91.680
  H     -304.273    -530.177      90.659
  P     -307.346    -532.389      88.712
  C     -304.968    -533.093      88.088
  O     -306.101    -532.330      87.716
  O     -308.380    -531.345      88.059
  O     -307.983    -533.738      88.844
  H     -308.950    -531.807      87.422
  H     -304.101    -532.748      87.519
  H     -305.142    -534.150      87.856
  H     -304.764    -532.980      89.157
  H     -301.136    -527.043      89.495
  H     -302.315    -526.799      88.229
  H     -302.265    -528.316      89.094

 3  4  5  6  7  8  9  10  11  12  23  26  30  31 0
 6-311+G(2d,p)
 ****
 33  35  36  37  38 0
 6-311+G(2d,p)
 ****
 1  2  13  14  15  16  17  18  19  20  21  22  24  25 0
 3-21G
 ****
 27  28  29  32  34  39  40  41  42  43  44  45  46  47  48  49 0
 3-21G
 ****


