%nproc=1
%NoSave
%Mem=1900MB
#P OB98/GEN NMR

erre ene a

0 1
  C       92.043     304.689    -465.627
  O       93.272     304.015    -465.800
  H       92.242     305.691    -465.237
  H       91.431     304.148    -464.902
  H       91.506     304.779    -466.575
  P       93.264     302.701    -466.719
  C       95.423     303.355    -468.004
  O       94.030     303.085    -468.077
  C       95.951     303.805    -469.366
  O       95.884     302.676    -470.287
  C       95.163     304.968    -469.993
  O       96.076     305.824    -470.689
  C       94.292     304.267    -471.019
  O       93.875     305.139    -472.063
  C       95.231     303.156    -471.478
  N       93.824     301.604    -476.036
  C       94.708     302.595    -475.659
  N       95.261     303.331    -476.644
  N       95.020     302.847    -474.415
  C       94.410     302.024    -473.530
  C       93.514     301.011    -473.774
  C       93.161     300.753    -475.154
  O       92.369     299.905    -475.549
  N       93.074     300.452    -472.600
  C       93.688     301.139    -471.651
  N       94.507     302.104    -472.167
  O       91.730     302.596    -467.168
  O       93.735     301.453    -466.052
  H       93.104     305.652    -471.745
  H       91.249     301.997    -466.566
  H       93.603     301.463    -477.006
  H       93.559     300.992    -470.590
  H       96.003     303.518    -472.170
  H       93.399     303.854    -470.535
  H       95.095     303.178    -477.627
  H       94.585     305.553    -469.271
  H       95.943     304.035    -476.385
  H       97.010     304.070    -469.261
  H       95.949     302.444    -467.701
  H       95.600     304.129    -467.251
  P       95.681     307.366    -470.864
  C       97.763     308.283    -469.603
  O       96.346     308.206    -469.670
  O       94.121     307.383    -470.497
  O       95.924     307.902    -472.235
  H       93.661     308.049    -471.041
  H       98.049     308.874    -468.758
  H       98.138     308.735    -470.497
  H       98.169     307.298    -469.504

 6  7  8  9  10  11  12  13  14  15  26  29  33  34 0
 6-311+G(2d,p)
 ****
 36  38  39  40  41 0
 6-311+G(2d,p)
 ****
 1  2  3  4  5  16  17  18  19  20  21  22  23  24  25 0
 3-21G
 ****
 27  28  30  31  32  35  37  42  43  44  45  46  47 0
 3-21G
 ****
 48  49 0
 3-21G
 ****


