%nproc=1
%NoSave
%Mem=1900MB
#P OB98/GEN NMR

erre ene a

0 1
  C      -35.406     357.020     -67.527
  O      -36.805     357.027     -67.728
  H      -35.136     357.712     -66.726
  H      -35.094     356.011     -67.241
  H      -34.890     357.303     -68.451
  P      -37.473     358.431     -68.122
  C      -38.512     360.361     -66.720
  O      -37.701     359.194     -66.729
  C      -38.408     361.038     -65.357
  O      -37.019     361.156     -64.966
  C      -38.969     362.454     -65.328
  O      -40.377     362.478     -65.170
  C      -38.267     363.011     -64.103
  O      -38.899     362.515     -62.909
  C      -36.861     362.412     -64.252
  N      -33.716     366.443     -63.951
  C      -34.448     365.801     -63.015
  N      -35.243     364.721     -63.172
  C      -35.231     364.303     -64.449
  C      -34.529     364.854     -65.509
  C      -33.743     365.983     -65.221
  N      -33.018     366.661     -66.180
  N      -34.787     364.160     -66.674
  C      -35.616     363.200     -66.320
  N      -35.941     363.263     -64.990
  O      -38.961     358.035     -68.562
  O      -36.751     359.231     -69.155
  H      -38.957     361.542     -62.999
  H      -39.385     358.779     -69.033
  H      -34.390     366.206     -62.012
  H      -36.017     362.442     -66.982
  H      -36.391     362.191     -63.286
  H      -38.305     364.104     -64.053
  H      -38.657     363.027     -66.210
  H      -38.908     360.402     -64.615
  H      -39.553     360.075     -66.908
  H      -32.606     367.541     -65.906
  H      -33.146     366.416     -67.149
  H      -38.177     361.043     -67.506
  P      -41.210     363.478     -66.115
  C      -41.465     366.062     -66.061
  O      -40.606     364.945     -65.870
  O      -42.638     363.542     -65.393
  O      -41.315     363.045     -67.540
  H      -43.352     363.666     -66.044
  H      -40.926     366.965     -65.862
  H      -42.298     365.990     -65.393
  H      -41.818     366.072     -67.071

 6  7  8  9  10  11  12  13  14  15  25  28  32  33  34  35 0
 6-311+G(2d,p)
 ****
 36  39  40 0
 6-311+G(2d,p)
 ****
 1  2  3  4  5  16  17  18  19  20  21  22  23  24 0
 3-21G
 ****
 26  27  29  30  31  37  38  41  42  43  44  45  46  47 0
 3-21G
 ****
 48 0
 3-21G
 ****


