%nproc=1
%NoSave
%Mem=1900MB
#P OB98/GEN NMR

erre ene a

0 1
  C       70.199     270.749    -139.247
  O       70.265     271.990    -139.956
  P       70.902     273.246    -139.188
  C       68.659     274.323    -138.423
  O       69.887     273.712    -138.042
  C       67.953     274.903    -137.193
  O       67.622     273.869    -136.248
  C       68.812     275.888    -136.422
  O       68.837     277.145    -137.071
  C       68.125     275.911    -135.061
  O       67.105     276.920    -134.999
  C       67.510     274.497    -134.959
  N       68.133     273.690    -133.921
  C       67.516     273.723    -132.667
  O       66.520     274.427    -132.484
  N       68.059     272.980    -131.649
  C       69.136     272.288    -131.861
  N       69.629     271.576    -130.810
  C       69.831     272.246    -133.161
  C       69.283     272.966    -134.138
  O       70.807     274.423    -140.268
  O       72.310     273.025    -138.737
  H       67.573     277.775    -135.100
  H       71.557     275.036    -140.168
  H       70.730     271.659    -133.285
  H       69.726     272.995    -135.128
  H       66.438     274.565    -134.735
  H       68.838     276.135    -134.259
  H       69.832     275.495    -136.316
  H       67.026     275.392    -137.523
  H       69.126     271.629    -129.932
  H       68.011     273.592    -138.914
  H       70.463     271.009    -130.862
  H       68.866     275.103    -139.163
  P       70.191     277.580    -137.806
  C       70.444     279.393    -136.005
  O       71.062     278.311    -136.674
  O       69.705     278.820    -138.699
  O       70.892     276.546    -138.622
  H       70.428     279.123    -139.276
  H       71.048     279.659    -135.135
  H       69.445     279.114    -135.665
  H       70.385     280.257    -136.672
  H       69.755     270.004    -139.873
  H       69.606     270.873    -138.365
  H       71.187     270.442    -138.972

 3  4  5  6  7  8  9  10  11  12  13  21  23  27  28  29  30  32 0
 6-311+G(2d,p)
 ****
 34  35 0
 6-311+G(2d,p)
 ****
 1  2  14  15  16  17  18  19  20  22  24  25  26 0
 3-21G
 ****
 31  33  36  37  38  39  40  41  42  43  44  45  46 0
 3-21G
 ****


