%nproc=1
%NoSave
%Mem=1900MB
#P OB98/GEN NMR

erre ene a

0 1
  C       53.484      45.338      87.820
  O       54.301      44.762      86.820
  H       54.008      45.275      88.777
  H       52.538      44.796      87.902
  H       53.293      46.391      87.597
  P       53.740      44.693      85.322
  C       52.742      42.327      85.599
  O       52.477      43.704      85.364
  C       51.446      41.584      85.910
  O       50.945      41.966      87.205
  C       50.316      41.850      84.916
  O       50.470      41.051      83.757
  C       49.112      41.443      85.749
  O       49.020      40.005      85.795
  C       49.492      41.988      87.139
  N       48.316      45.323      90.779
  C       48.629      43.982      90.875
  N       48.594      43.446      92.114
  N       48.936      43.231      89.849
  C       48.861      43.883      88.667
  C       48.546      45.204      88.442
  C       48.273      46.041      89.592
  O       48.016      47.241      89.551
  N       48.480      45.484      87.101
  C       48.809      44.347      86.518
  N       49.041      43.339      87.425
  O       54.741      44.354      84.259
  O       53.072      46.127      85.084
  H       48.948      39.693      84.874
  H       53.708      46.750      84.687
  H       48.080      45.850      91.603
  H       48.897      44.198      85.448
  H       49.116      41.351      87.947
  H       48.170      41.815      85.344
  H       48.222      43.931      92.916
  H       50.237      42.915      84.675
  H       48.764      42.450      92.196
  H       51.678      40.511      85.959
  H       53.431      42.264      86.448
  H       53.223      41.875      84.726
  P       49.816      41.474      82.351
  C       47.718      40.103      82.991
  O       48.232      41.353      82.567
  O       50.341      40.735      81.169
  O       50.022      43.056      82.280
  H       50.907      43.314      81.920
  H       46.655      40.170      83.093
  H       48.150      39.841      83.934
  H       47.960      39.354      82.267

 6  7  8  9  10  11  12  13  14  15  26  29  33  34 0
 6-311+G(2d,p)
 ****
 36  38  39  40  41 0
 6-311+G(2d,p)
 ****
 1  2  3  4  5  16  17  18  19  20  21  22  23  24  25 0
 3-21G
 ****
 27  28  30  31  32  35  37  42  43  44  45  46  47 0
 3-21G
 ****
 48  49 0
 3-21G
 ****


