%nproc=1
%NoSave
%Mem=1900MB
#P OB98/GEN NMR

erre ene a

0 1
  C       12.993     365.077    -145.318
  O       13.968     364.273    -145.964
  P       14.619     363.017    -145.214
  C       16.981     363.813    -145.861
  O       16.039     362.752    -145.925
  C       18.399     363.292    -146.117
  O       18.890     362.672    -144.900
  C       18.474     362.255    -147.226
  O       19.700     362.430    -147.943
  C       18.534     360.926    -146.492
  O       19.185     359.919    -147.292
  C       19.278     361.317    -145.215
  N       20.652     357.233    -142.428
  C       21.241     357.841    -143.476
  N       20.811     358.906    -144.184
  C       19.658     359.381    -143.673
  C       18.943     358.869    -142.602
  C       19.481     357.736    -141.965
  N       18.884     357.123    -140.884
  N       17.791     359.605    -142.385
  C       17.828     360.556    -143.292
  N       18.945     360.470    -144.088
  O       13.746     361.817    -145.108
  O       15.039     363.580    -143.775
  H       20.009     360.315    -147.643
  H       14.881     362.910    -143.087
  H       22.188     357.413    -143.797
  H       17.076     361.318    -143.425
  H       20.364     361.300    -145.354
  H       17.519     360.576    -146.281
  H       17.626     362.307    -147.920
  H       19.048     364.151    -146.335
  H       16.935     364.259    -144.862
  H       19.405     356.394    -140.417
  H       18.111     357.599    -140.433
  H       16.714     364.582    -146.596
  P       19.551     362.779    -149.511
  C       21.817     361.726    -150.266
  O       21.067     362.897    -150.044
  O       18.656     363.951    -149.746
  O       19.012     361.389    -150.091
  H       19.265     360.637    -149.520
  H       22.822     362.009    -150.591
  H       21.355     361.127    -151.058
  H       21.888     361.131    -149.350
  H       12.682     365.860    -145.978
  H       13.413     365.503    -144.431
  H       12.148     364.474    -145.058

 3  4  5  6  7  8  9  10  11  12  22  25  29  30  31  32 0
 6-311+G(2d,p)
 ****
 33  36  37 0
 6-311+G(2d,p)
 ****
 1  2  13  14  15  16  17  18  19  20  21  23  24  26 0
 3-21G
 ****
 27  28  34  35  38  39  40  41  42  43  44  45  46  47  48 0
 3-21G
 ****


