%nproc=1
%NoSave
%Mem=1900MB
#P OB98/GEN NMR

erre ene a

0 1
  C      -61.442     -18.582     131.124
  O      -62.426     -18.201     132.064
  H      -61.388     -17.818     130.344
  H      -61.716     -19.534     130.665
  H      -60.462     -18.666     131.603
  P      -62.523     -19.082     133.401
  C      -63.690     -17.013     134.446
  O      -63.680     -18.424     134.297
  C      -65.001     -16.558     135.080
  O      -65.298     -17.357     136.247
  C      -65.001     -15.107     135.547
  O      -65.275     -14.209     134.480
  C      -66.145     -15.135     136.547
  O      -67.405     -15.125     135.846
  C      -65.930     -16.491     137.231
  N      -65.595     -14.798     141.997
  C      -66.611     -14.652     141.073
  N      -67.690     -13.944     141.471
  N      -66.574     -15.148     139.864
  C      -65.430     -15.822     139.599
  C      -64.354     -16.038     140.431
  C      -64.412     -15.490     141.767
  O      -63.550     -15.610     142.633
  N      -63.382     -16.776     139.812
  C      -63.857     -16.992     138.602
  N      -65.095     -16.427     138.419
  O      -61.183     -18.699     134.195
  O      -62.627     -20.554     133.193
  H      -67.536     -14.217     135.516
  H      -60.857     -19.493     134.662
  H      -65.670     -14.386     142.911
  H      -63.349     -17.548     137.827
  H      -66.873     -16.963     137.528
  H      -66.143     -14.273     137.214
  H      -67.761     -13.493     142.371
  H      -64.070     -14.850     136.065
  H      -68.461     -13.851     140.824
  H      -65.805     -16.730     134.353
  H      -63.586     -16.547     133.460
  H      -62.845     -16.714     135.073
  P      -64.089     -13.230     134.010
  C      -65.336     -12.901     131.755
  O      -64.734     -12.283     132.887
  O      -63.133     -14.201     133.170
  O      -63.364     -12.542     135.114
  H      -62.228     -13.836     133.143
  H      -65.719     -12.148     131.099
  H      -66.137     -13.533     132.078
  H      -64.605     -13.487     131.238

 6  7  8  9  10  11  12  13  14  15  26  29  33  34 0
 6-311+G(2d,p)
 ****
 36  38  39  40  41 0
 6-311+G(2d,p)
 ****
 1  2  3  4  5  16  17  18  19  20  21  22  23  24  25 0
 3-21G
 ****
 27  28  30  31  32  35  37  42  43  44  45  46  47 0
 3-21G
 ****
 48  49 0
 3-21G
 ****


