%nproc=1
%NoSave
%Mem=1900MB
#P OB98/GEN NMR

erre ene a

0 1
  C     -140.615      20.696     -79.654
  O     -140.672      21.126     -81.001
  H     -141.071      19.704     -79.580
  H     -141.172      21.387     -79.011
  H     -139.575      20.634     -79.321
  P     -140.106      22.597     -81.301
  C     -142.472      23.618     -81.017
  O     -141.116      23.626     -80.593
  C     -142.569      23.949     -82.505
  O     -143.930      23.814     -82.972
  C     -142.119      25.361     -82.865
  O     -140.711      25.424     -83.012
  C     -142.856      25.585     -84.177
  O     -142.167      24.945     -85.274
  C     -144.205      24.897     -83.906
  N     -147.451      28.604     -85.018
  C     -146.483      28.004     -85.797
  N     -146.338      28.475     -87.056
  N     -145.716      27.029     -85.384
  C     -145.930      26.694     -84.089
  C     -146.855      27.215     -83.210
  C     -147.737      28.256     -83.702
  O     -148.669      28.769     -83.085
  N     -146.779      26.601     -81.985
  C     -145.792      25.734     -82.110
  N     -145.237      25.758     -83.369
  O     -140.406      22.800     -82.864
  O     -138.657      22.800     -81.000
  H     -142.747      24.944     -86.055
  H     -139.663      23.289     -83.263
  H     -148.035      29.327     -85.399
  H     -145.443      25.067     -81.335
  H     -144.618      24.441     -84.814
  H     -142.920      26.645     -84.429
  H     -146.681      29.386     -87.325
  H     -142.472      26.089     -82.122
  H     -145.577      28.084     -87.598
  H     -141.970      23.207     -83.048
  H     -143.027      24.362     -80.440
  H     -142.901      22.625     -80.832
  P     -139.922      26.613     -82.279
  C     -138.579      27.365     -84.371
  O     -139.543      27.712     -83.389
  O     -138.511      25.938     -81.925
  O     -140.593      27.141     -81.055
  H     -138.474      25.743     -80.966
  H     -138.433      28.191     -85.035
  H     -138.924      26.518     -84.926
  H     -137.653      27.124     -83.892

 6  7  8  9  10  11  12  13  14  15  26  29  33  34 0
 6-311+G(2d,p)
 ****
 36  38  39  40  41 0
 6-311+G(2d,p)
 ****
 1  2  3  4  5  16  17  18  19  20  21  22  23  24  25 0
 3-21G
 ****
 27  28  30  31  32  35  37  42  43  44  45  46  47 0
 3-21G
 ****
 48  49 0
 3-21G
 ****


