%nproc=1
%NoSave
%Mem=1900MB
#P OB98/GEN NMR

erre ene a

0 1
  C     -300.013    -544.804    -475.502
  O     -300.860    -545.858    -475.907
  H     -300.469    -544.291    -474.652
  H     -299.889    -544.089    -476.321
  H     -299.036    -545.193    -475.197
  P     -300.333    -546.802    -477.092
  C     -302.705    -547.253    -478.044
  O     -301.541    -547.805    -477.443
  C     -303.811    -547.066    -477.004
  O     -303.500    -545.903    -476.182
  C     -305.208    -546.840    -477.605
  O     -306.170    -547.464    -476.744
  C     -305.382    -545.331    -477.495
  O     -306.754    -544.934    -477.527
  C     -304.676    -545.075    -476.167
  N     -306.351    -540.734    -474.245
  C     -306.905    -542.008    -474.215
  N     -308.089    -542.139    -473.572
  N     -306.345    -543.050    -474.765
  C     -305.148    -542.772    -475.344
  C     -304.498    -541.566    -475.440
  C     -305.140    -540.408    -474.851
  O     -304.708    -539.261    -474.861
  N     -303.315    -541.697    -476.132
  C     -303.253    -542.984    -476.444
  N     -304.344    -543.674    -475.990
  O     -299.268    -547.739    -476.344
  O     -299.731    -546.095    -478.256
  H     -307.172    -545.227    -476.691
  H     -298.372    -547.364    -476.426
  H     -306.828    -539.964    -473.814
  H     -302.450    -543.455    -476.995
  H     -305.287    -545.368    -475.307
  H     -304.861    -544.829    -478.320
  H     -308.550    -541.390    -473.089
  H     -305.328    -547.212    -478.630
  H     -308.488    -543.067    -473.502
  H     -303.811    -547.934    -476.337
  H     -303.058    -547.930    -478.828
  H     -302.453    -546.283    -478.494
  P     -307.458    -548.139    -477.418
  C     -309.228    -547.379    -475.671
  O     -308.517    -548.457    -476.260
  O     -306.924    -549.602    -477.816
  O     -307.991    -547.407    -478.604
  H     -307.423    -549.937    -478.584
  H     -309.891    -547.757    -474.920
  H     -309.794    -546.871    -476.424
  H     -308.535    -546.696    -475.225

 6  7  8  9  10  11  12  13  14  15  26  29  33  34 0
 6-311+G(2d,p)
 ****
 36  38  39  40  41 0
 6-311+G(2d,p)
 ****
 1  2  3  4  5  16  17  18  19  20  21  22  23  24  25 0
 3-21G
 ****
 27  28  30  31  32  35  37  42  43  44  45  46  47 0
 3-21G
 ****
 48  49 0
 3-21G
 ****


