%nproc=1
%NoSave
%Mem=1900MB
#P OB98/GEN NMR

erre ene a

0 1
  C      627.151     -51.155     -18.957
  O      627.286     -50.339     -17.806
  H      627.842     -50.797     -19.724
  H      626.128     -51.079     -19.342
  H      627.387     -52.193     -18.719
  P      626.531     -50.838     -16.485
  C      624.704     -48.958     -16.341
  O      625.882     -49.540     -15.792
  C      624.455     -47.586     -15.716
  O      624.267     -47.699     -14.289
  C      625.621     -46.627     -15.848
  O      625.774     -46.126     -17.167
  C      625.218     -45.549     -14.847
  O      624.320     -44.594     -15.425
  C      624.512     -46.379     -13.749
  N      625.287     -46.416     -12.518
  C      625.112     -45.319     -11.664
  O      624.323     -44.423     -11.970
  N      625.858     -45.255     -10.517
  C      626.724     -46.186     -10.258
  N      627.455     -46.046      -9.116
  C      626.943     -47.358     -11.126
  C      626.199     -47.410     -12.235
  O      627.742     -51.205     -15.508
  O      625.561     -51.947     -16.704
  H      624.191     -43.893     -14.753
  H      628.417     -50.512     -15.445
  H      627.671     -48.108     -10.861
  H      626.294     -48.235     -12.938
  H      623.525     -45.946     -13.517
  H      626.090     -44.990     -14.489
  H      626.551     -47.094     -15.491
  H      623.542     -47.168     -16.155
  H      627.311     -45.203      -8.571
  H      623.839     -49.610     -16.177
  H      628.209     -46.666      -8.854
  H      624.847     -48.866     -17.422
  P      627.196     -46.159     -17.906
  C      627.221     -43.588     -17.994
  O      627.314     -44.794     -18.746
  O      627.481     -47.390     -18.703
  O      628.237     -45.910     -16.710
  H      628.112     -45.067     -16.231
  H      627.312     -42.749     -18.652
  H      628.007     -43.559     -17.268
  H      626.274     -43.550     -17.497

 6  7  8  9  10  11  12  13  14  15  16  26  30  31  32  33  35 0
 6-311+G(2d,p)
 ****
 37  38 0
 6-311+G(2d,p)
 ****
 1  2  3  4  5  17  18  19  20  21  22  23  24  25 0
 3-21G
 ****
 27  28  29  34  36  39  40  41  42  43  44  45  46 0
 3-21G
 ****


