%nproc=1
%NoSave
%Mem=1900MB
#P OB98/GEN NMR

erre ene a

0 1
  C      139.326     265.093     248.260
  O      140.383     264.949     247.333
  H      139.617     264.684     249.231
  H      139.104     266.158     248.379
  H      138.430     264.584     247.894
  P      140.889     263.455     247.042
  C      138.688     262.775     245.833
  O      139.551     262.571     246.941
  C      137.996     261.462     245.484
  O      137.063     261.664     244.397
  C      138.950     260.370     245.015
  O      139.575     259.692     246.092
  C      137.991     259.457     244.270
  O      137.230     258.680     245.211
  C      137.083     260.475     243.561
  N      137.070     259.165     238.612
  C      136.462     258.622     239.691
  N      136.499     259.045     240.971
  C      137.250     260.151     241.087
  C      137.926     260.819     240.078
  C      137.819     260.278     238.786
  N      138.464     260.808     237.690
  N      138.609     261.905     240.588
  C      138.336     261.900     241.877
  N      137.545     260.840     242.231
  O      141.524     262.988     248.435
  O      141.824     263.295     245.890
  H      136.793     259.311     245.814
  H      142.060     262.182     248.311
  H      135.870     257.733     239.499
  H      138.693     262.628     242.592
  H      136.051     260.121     243.461
  H      138.505     258.753     243.610
  H      139.692     260.762     244.307
  H      137.420     261.134     246.358
  H      139.279     263.118     244.978
  H      138.448     260.266     236.839
  H      139.139     261.544     237.833
  H      137.945     263.538     246.085
  P      140.700     258.604     245.728
  C      142.571     260.273     245.048
  O      141.644     259.282     244.620
  O      139.885     257.509     244.896
  O      141.400     258.016     246.909
  H      140.256     256.618     245.038
  H      143.126     260.630     244.206
  H      143.243     259.847     245.763
  H      142.041     261.087     245.497

 6  7  8  9  10  11  12  13  14  15  25  28  32  33  34  35 0
 6-311+G(2d,p)
 ****
 36  39  40 0
 6-311+G(2d,p)
 ****
 1  2  3  4  5  16  17  18  19  20  21  22  23  24 0
 3-21G
 ****
 26  27  29  30  31  37  38  41  42  43  44  45  46  47 0
 3-21G
 ****
 48 0
 3-21G
 ****


