%nproc=1
%NoSave
%Mem=1900MB
#P OB98/GEN NMR

erre ene a

0 1
  C     -929.874    -801.480    -996.333
  O     -930.767    -800.442    -995.954
  H     -928.918    -801.333    -995.806
  H     -929.683    -801.418    -997.407
  H     -930.266    -802.465    -996.074
  P     -932.321    -800.673    -996.284
  C     -933.034    -800.309    -993.815
  O     -933.145    -799.871    -995.154
  C     -933.565    -799.244    -992.844
  O     -932.560    -798.181    -992.727
  C     -934.888    -798.591    -993.315
  O     -935.693    -798.305    -992.160
  C     -934.418    -797.248    -993.897
  O     -935.456    -796.267    -993.904
  C     -933.255    -796.936    -992.942
  N     -932.731    -791.957    -993.476
  C     -933.604    -792.688    -992.680
  N     -934.523    -792.007    -991.969
  N     -933.577    -794.006    -992.615
  C     -932.605    -794.562    -993.364
  C     -931.676    -793.949    -994.180
  C     -931.728    -792.501    -994.267
  O     -930.981    -791.798    -994.951
  N     -930.894    -794.874    -994.818
  C     -931.344    -796.045    -994.400
  N     -932.375    -795.911    -993.526
  O     -932.547    -802.210    -995.894
  O     -932.718    -800.394    -997.696
  H     -936.162    -796.583    -994.502
  H     -932.442    -802.772    -996.685
  H     -932.802    -790.959    -993.488
  H     -930.977    -797.010    -994.710
  H     -933.598    -796.554    -991.989
  H     -934.065    -797.393    -994.923
  H     -934.578    -791.004    -991.947
  H     -935.462    -799.174    -994.027
  H     -935.134    -792.525    -991.357
  H     -933.682    -799.683    -991.856
  H     -931.973    -800.496    -993.583
  H     -933.602    -801.251    -993.683
  P     -937.200    -797.815    -992.406
  C     -938.211    -800.178    -991.988
  O     -938.195    -798.807    -991.607
  O     -937.470    -798.190    -993.941
  O     -937.418    -796.359    -992.153
  H     -938.044    -797.529    -994.349
  H     -938.911    -800.710    -991.378
  H     -937.235    -800.596    -991.858
  H     -938.500    -800.259    -993.015

 6  7  8  9  10  11  12  13  14  15  26  29  33  34 0
 6-311+G(2d,p)
 ****
 36  38  39  40  41 0
 6-311+G(2d,p)
 ****
 1  2  3  4  5  16  17  18  19  20  21  22  23  24  25 0
 3-21G
 ****
 27  28  30  31  32  35  37  42  43  44  45  46  47 0
 3-21G
 ****
 48  49 0
 3-21G
 ****


