%nproc=1
%NoSave
%Mem=1900MB
#P OB98/GEN NMR

erre ene a

0 1
  C      113.484     256.518    -256.039
  O      113.043     255.322    -255.434
  H      112.657     257.004    -256.564
  H      113.850     257.194    -255.261
  H      114.298     256.312    -256.738
  P      112.427     254.204    -256.406
  C      114.441     252.710    -257.065
  O      113.314     252.876    -256.216
  C      114.890     251.250    -257.054
  O      115.826     251.052    -258.139
  C      115.570     250.799    -255.749
  O      114.866     249.688    -255.182
  C      116.947     250.323    -256.186
  O      117.374     249.141    -255.509
  C      116.782     250.089    -257.681
  N      120.636     247.544    -259.836
  C      119.364     247.178    -259.570
  N      118.356     247.936    -259.091
  C      118.760     249.206    -258.915
  C      120.015     249.733    -259.166
  C      120.990     248.834    -259.634
  N      122.301     249.194    -259.853
  N      120.052     251.080    -258.852
  C      118.854     251.350    -258.380
  N      118.043     250.245    -258.378
  O      112.836     254.721    -257.865
  O      110.954     254.002    -256.284
  H      117.527     249.392    -254.578
  H      112.058     254.690    -258.454
  H      119.126     246.135    -259.753
  H      118.534     252.305    -257.984
  H      116.391     249.087    -257.902
  H      117.677     251.117    -255.985
  H      115.646     251.605    -255.011
  H      114.014     250.621    -257.263
  H      115.264     253.337    -256.708
  H      122.956     248.462    -260.074
  H      122.593     250.127    -259.600
  H      114.174     253.026    -258.077
  P      113.932     250.000    -253.909
  C      111.650     250.613    -254.999
  O      112.425     249.633    -254.319
  O      113.921     251.601    -253.855
  O      114.426     249.400    -252.634
  H      113.765     251.904    -252.941
  H      110.676     250.220    -255.201
  H      112.129     250.870    -255.920
  H      111.562     251.486    -254.387

 6  7  8  9  10  11  12  13  14  15  25  28  32  33  34  35 0
 6-311+G(2d,p)
 ****
 36  39  40 0
 6-311+G(2d,p)
 ****
 1  2  3  4  5  16  17  18  19  20  21  22  23  24 0
 3-21G
 ****
 26  27  29  30  31  37  38  41  42  43  44  45  46  47  48 0
 3-21G
 ****


