%nproc=1
%NoSave
%Mem=1900MB
#P OB98/GEN NMR

erre ene a

0 1
  C       26.387    -571.122     -86.537
  O       25.017    -570.804     -86.686
  P       23.969    -571.071     -85.503
  C       23.874    -568.736     -84.444
  O       24.317    -570.076     -84.297
  C       23.294    -568.198     -83.140
  O       22.072    -568.900     -82.820
  C       24.241    -568.327     -81.937
  O       24.078    -567.137     -81.140
  C       23.702    -569.540     -81.200
  O       24.080    -569.555     -79.839
  C       22.204    -569.380     -81.469
  N       21.469    -570.617     -81.275
  C       20.285    -570.555     -80.549
  O       19.956    -569.489     -79.996
  N       19.503    -571.671     -80.452
  C       19.964    -572.818     -80.874
  N       19.135    -573.887     -80.816
  C       21.326    -572.975     -81.421
  C       22.002    -571.841     -81.629
  O       23.816    -572.500     -85.107
  O       22.590    -570.481     -86.063
  H       21.899    -571.174     -85.997
  H       25.053    -569.693     -79.783
  H       21.714    -573.955     -81.637
  H       23.010    -571.862     -82.046
  H       21.774    -568.617     -80.802
  H       24.082    -570.450     -81.675
  H       25.287    -568.418     -82.226
  H       23.029    -567.142     -83.298
  H       18.191    -573.734     -80.477
  H       23.085    -568.725     -85.211
  H       19.275    -574.710     -81.401
  H       24.697    -568.098     -84.798
  P       25.403    -566.415     -80.588
  C       25.522    -564.822     -82.627
  O       26.185    -565.780     -81.831
  O       26.329    -567.669     -80.207
  O       25.225    -565.544     -79.389
  H       26.960    -567.406     -79.510
  H       26.177    -564.563     -83.463
  H       25.320    -563.919     -82.048
  H       24.599    -565.233     -83.037
  H       26.912    -570.868     -87.434
  H       26.491    -572.170     -86.347
  H       26.794    -570.568     -85.717

 3  4  5  6  7  8  9  10  11  12  13  24  27  28  29  30  32 0
 6-311+G(2d,p)
 ****
 34  35 0
 6-311+G(2d,p)
 ****
 1  2  14  15  16  17  18  19  20  21  22  23  25  26 0
 3-21G
 ****
 31  33  36  37  38  39  40  41  42  43  44  45  46 0
 3-21G
 ****


