%nproc=1
%NoSave
%Mem=1900MB
#P OB98/GEN NMR

erre ene a

0 1
  C     -156.905     -73.359     912.805
  O     -157.613     -72.147     912.984
  P     -159.163     -72.003     912.622
  C     -159.915     -72.487     915.076
  O     -159.950     -71.582     913.964
  C     -160.080     -71.778     916.424
  O     -159.043     -70.788     916.599
  C     -161.413     -71.013     916.456
  O     -162.611     -71.684     916.801
  C     -161.123     -69.762     917.298
  O     -161.545     -69.899     918.643
  C     -159.605     -69.627     917.213
  N     -159.147     -64.566     917.279
  C     -159.390     -65.439     918.331
  N     -159.723     -64.861     919.496
  N     -159.317     -66.736     918.227
  C     -159.061     -67.163     916.959
  C     -158.789     -66.410     915.840
  C     -158.828     -64.969     915.987
  O     -158.709     -64.164     915.048
  N     -158.638     -67.177     914.723
  C     -158.860     -68.408     915.142
  N     -159.141     -68.454     916.492
  O     -159.758     -73.058     911.748
  O     -159.167     -70.625     911.783
  H     -162.509     -70.050     918.659
  H     -159.852     -70.695     911.094
  H     -159.293     -63.584     917.407
  H     -158.848     -69.295     914.524
  H     -159.170     -69.573     918.215
  H     -161.667     -68.902     916.895
  H     -159.940     -63.867     919.575
  H     -161.588     -70.638     915.440
  H     -160.066     -65.474     920.238
  H     -159.953     -72.475     917.259
  H     -158.954     -73.009     915.020
  H     -160.700     -73.229     914.958
  P     -164.101     -71.148     916.565
  C     -164.730     -72.614     914.549
  O     -164.973     -72.323     915.928
  O     -163.957     -70.102     915.347
  O     -164.721     -70.471     917.755
  H     -164.699     -69.475     915.353
  H     -165.550     -73.188     914.153
  H     -163.791     -73.193     914.466
  H     -164.625     -71.691     913.973
  H     -155.888     -73.227     913.111
  H     -156.934     -73.640     911.773
  H     -157.358     -74.127     913.396

 3  4  5  6  7  8  9  10  11  12  23  26  30  31 0
 6-311+G(2d,p)
 ****
 33  35  36  37  38 0
 6-311+G(2d,p)
 ****
 1  2  13  14  15  16  17  18  19  20  21  22  24  25 0
 3-21G
 ****
 27  28  29  32  34  39  40  41  42  43  44  45  46  47  48  49 0
 3-21G
 ****


