%nproc=1
%NoSave
%Mem=1900MB
#P OB98/GEN NMR

erre ene a

0 1
  C      128.256     184.009       9.587
  O      129.583     183.952      10.123
  P      130.292     185.346      10.490
  C      129.847     184.959      13.020
  O      129.743     185.844      11.916
  C      129.018     185.453      14.212
  O      129.448     186.782      14.626
  C      127.517     185.548      13.922
  O      126.804     185.312      15.141
  C      127.344     187.003      13.535
  O      125.982     187.420      13.634
  C      128.315     187.663      14.513
  N      126.945     192.510      14.261
  C      126.253     191.413      14.735
  N      125.030     191.651      15.255
  N      126.716     190.191      14.712
  C      127.970     190.116      14.196
  C      128.754     191.124      13.685
  C      128.213     192.467      13.697
  O      128.775     193.475      13.276
  N      129.960     190.644      13.231
  C      129.898     189.349      13.461
  N      128.731     188.982      14.079
  O      129.627     186.369       9.454
  O      131.778     185.319      10.349
  H      125.957     188.387      13.463
  H      130.283     186.620       8.777
  H      126.529     193.427      14.294
  H      130.659     188.630      13.206
  H      127.875     187.782      15.513
  H      127.677     187.156      12.494
  H      124.630     192.570      15.354
  H      127.154     184.859      13.153
  H      124.514     190.874      15.646
  H      129.189     184.778      15.063
  H      130.892     184.851      13.323
  H      129.531     183.960      12.700
  P      126.438     183.788      15.487
  C      126.683     183.862      18.067
  O      127.226     183.432      16.837
  O      127.213     182.951      14.368
  O      124.974     183.490      15.496
  H      126.781     182.097      14.219
  H      126.215     183.012      18.570
  H      125.945     184.656      17.943
  H      127.499     184.241      18.698
  H      127.908     183.017       9.389
  H      128.263     184.572       8.677
  H      127.606     184.481      10.294

 3  4  5  6  7  8  9  10  11  12  23  26  30  31 0
 6-311+G(2d,p)
 ****
 33  35  36  37  38 0
 6-311+G(2d,p)
 ****
 1  2  13  14  15  16  17  18  19  20  21  22  24  25 0
 3-21G
 ****
 27  28  29  32  34  39  40  41  42  43  44  45  46  47  48  49 0
 3-21G
 ****


