%nproc=1
%NoSave
%Mem=1900MB
#P OB98/GEN NMR

erre ene a

0 1
  C      368.025    -407.303    -512.748
  O      367.333    -406.726    -511.658
  H      369.080    -407.416    -512.471
  H      367.961    -406.651    -513.621
  H      367.614    -408.288    -512.985
  P      365.732    -406.636    -511.791
  C      365.843    -404.407    -513.179
  O      365.452    -405.767    -513.112
  C      365.281    -403.742    -514.438
  O      365.772    -404.467    -515.596
  C      363.749    -403.741    -514.504
  O      363.325    -402.531    -515.128
  C      363.435    -404.920    -515.413
  O      362.152    -404.794    -516.023
  C      364.627    -404.877    -516.380
  N      364.855    -406.164    -517.036
  C      364.452    -406.268    -518.366
  O      363.906    -405.314    -518.932
  N      364.615    -407.468    -519.025
  C      365.093    -408.489    -518.375
  N      365.212    -409.654    -519.079
  C      365.499    -408.434    -516.964
  C      365.362    -407.249    -516.363
  O      365.366    -405.638    -510.592
  O      365.038    -407.954    -511.736
  H      362.046    -405.516    -516.679
  H      365.949    -404.864    -510.540
  H      365.879    -409.316    -516.464
  H      365.638    -407.115    -515.318
  H      364.465    -404.120    -517.158
  H      363.445    -405.851    -514.835
  H      363.287    -403.826    -513.519
  H      365.679    -402.723    -514.502
  H      364.899    -409.649    -520.043
  H      366.936    -404.323    -513.180
  H      365.519    -410.522    -518.668
  H      365.467    -403.904    -512.284
  P      362.763    -401.331    -514.237
  C      360.337    -401.430    -515.137
  O      361.187    -401.535    -514.000
  O      363.169    -399.959    -514.659
  O      363.376    -401.665    -512.784
  H      363.662    -400.821    -512.383
  H      359.321    -401.586    -514.839
  H      360.614    -402.169    -515.859
  H      360.436    -400.456    -515.568

 6  7  8  9  10  11  12  13  14  15  16  26  30  31  32  33  35 0
 6-311+G(2d,p)
 ****
 37  38 0
 6-311+G(2d,p)
 ****
 1  2  3  4  5  17  18  19  20  21  22  23  24  25 0
 3-21G
 ****
 27  28  29  34  36  39  40  41  42  43  44  45  46 0
 3-21G
 ****


