%nproc=1
%NoSave
%Mem=1900MB
#P OB98/GEN NMR

erre ene a

0 1
  C      145.055     310.543    -873.171
  O      144.315     311.503    -873.900
  H      145.603     309.914    -873.878
  H      144.389     309.907    -872.583
  H      145.776     311.041    -872.512
  P      143.360     312.505    -873.095
  C      144.988     314.483    -872.730
  O      144.309     313.374    -872.144
  C      144.827     315.727    -871.860
  O      143.443     316.120    -871.793
  C      145.281     315.544    -870.417
  O      146.691     315.549    -870.331
  C      144.584     316.722    -869.758
  O      145.296     317.947    -870.000
  C      143.221     316.725    -870.499
  N      142.159     316.033    -869.773
  C      141.423     316.814    -868.874
  O      141.688     318.006    -868.719
  N      140.414     316.210    -868.165
  C      140.132     314.957    -868.362
  N      139.119     314.424    -867.636
  C      140.864     314.115    -869.322
  C      141.865     314.707    -869.978
  O      142.187     311.882    -872.398
  O      142.890     313.561    -874.201
  H      145.120     318.178    -870.934
  H      142.036     313.294    -874.590
  H      140.592     313.081    -869.466
  H      142.452     314.156    -870.706
  H      142.889     317.753    -870.683
  H      144.509     316.607    -868.675
  H      144.858     314.620    -870.006
  H      145.378     316.550    -872.346
  H      138.634     315.050    -866.996
  H      144.539     314.647    -873.714
  H      138.714     313.519    -867.818
  H      146.051     314.256    -872.871
  P      147.496     314.316    -869.698
  C      148.425     313.641    -871.999
  O      147.648     313.237    -870.883
  O      146.931     313.774    -868.428
  O      148.987     314.877    -869.549
  H      149.053     315.473    -868.760
  H      148.456     312.849    -872.718
  H      149.420     313.869    -871.677
  H      147.986     314.509    -872.444

 6  7  8  9  10  11  12  13  14  15  16  26  30  31  32  33  35 0
 6-311+G(2d,p)
 ****
 37  38 0
 6-311+G(2d,p)
 ****
 1  2  3  4  5  17  18  19  20  21  22  23  24  25 0
 3-21G
 ****
 27  28  29  34  36  39  40  41  42  43  44  45  46 0
 3-21G
 ****


