%nproc=1
%NoSave
%Mem=1900MB
#P OB98/GEN NMR

erre ene a

0 1
  C      526.023     449.679     611.649
  O      526.870     450.487     610.851
  H      526.470     448.688     611.786
  H      525.906     450.151     612.629
  H      525.040     449.584     611.180
  P      527.198     449.944     609.374
  C      528.669     447.979     608.512
  O      527.950     448.541     609.600
  C      529.604     446.884     609.033
  O      530.540     447.454     609.985
  C      528.891     445.764     609.774
  O      528.342     444.797     608.895
  C      530.030     445.192     610.594
  O      530.871     444.379     609.753
  C      530.776     446.465     611.033
  N      530.779     445.784     616.108
  C      531.381     445.101     615.104
  N      531.347     445.354     613.778
  C      530.604     446.451     613.530
  C      529.943     447.248     614.446
  C      530.042     446.870     615.796
  N      529.401     447.542     616.815
  N      529.266     448.269     613.806
  C      529.545     448.102     612.526
  N      530.323     447.003     612.299
  O      528.378     450.905     608.871
  O      526.050     449.887     608.427
  H      531.608     444.053     610.312
  H      528.504     450.813     607.908
  H      531.970     444.239     615.402
  H      529.193     448.746     611.720
  H      531.861     446.311     611.107
  H      529.688     444.549     611.412
  H      528.122     446.156     610.462
  H      530.189     446.495     608.192
  H      529.256     448.763     608.027
  H      529.415     447.111     617.727
  H      528.739     448.265     616.583
  H      527.970     447.549     607.792
  P      526.843     444.292     609.186
  C      525.744     442.620     610.861
  O      526.950     443.252     610.413
  O      526.525     443.354     607.933
  O      525.838     445.383     609.353
  H      525.582     443.389     607.704
  H      525.967     441.962     611.674
  H      525.315     442.060     610.057
  H      525.050     443.366     611.187

 6  7  8  9  10  11  12  13  14  15  25  28  32  33  34  35 0
 6-311+G(2d,p)
 ****
 36  39  40 0
 6-311+G(2d,p)
 ****
 1  2  3  4  5  16  17  18  19  20  21  22  23  24 0
 3-21G
 ****
 26  27  29  30  31  37  38  41  42  43  44  45  46  47 0
 3-21G
 ****
 48 0
 3-21G
 ****


