%nproc=1
%NoSave
%Mem=1900MB
#P OB98/GEN NMR

erre ene a

0 1
  C     -851.962     475.035     146.727
  O     -851.278     475.929     145.864
  H     -852.857     474.685     146.218
  H     -852.259     475.557     147.634
  H     -851.328     474.173     146.970
  P     -849.841     476.456     146.336
  C     -848.657     475.821     144.109
  O     -849.038     476.864     144.999
  C     -848.620     476.344     142.675
  O     -849.978     476.392     142.150
  C     -848.012     477.742     142.531
  O     -847.234     477.802     141.331
  C     -849.236     478.652     142.390
  O     -848.936     479.869     141.716
  C     -850.228     477.725     141.666
  N     -851.607     478.133     141.886
  C     -852.285     478.667     140.769
  O     -851.711     478.764     139.677
  N     -853.572     479.112     140.931
  C     -854.099     479.122     142.116
  N     -855.379     479.612     142.212
  C     -853.402     478.643     143.324
  C     -852.164     478.158     143.133
  O     -849.098     475.126     146.820
  O     -849.864     477.515     147.388
  H     -848.645     479.646     140.796
  H     -848.468     475.313     147.542
  H     -853.884     478.693     144.295
  H     -851.578     477.796     143.964
  H     -850.017     477.734     140.581
  H     -849.623     478.899     143.379
  H     -847.393     478.035     143.391
  H     -848.062     475.625     142.049
  H     -855.815     479.947     141.362
  H     -849.387     475.018     144.173
  H     -855.869     479.709     143.077
  H     -847.671     475.444     144.400
  P     -846.352     479.122     141.114
  C     -843.983     478.023     141.092
  O     -845.010     478.692     140.345
  O     -845.854     479.486     142.588
  O     -847.113     480.251     140.478
  H     -846.317     480.287     142.906
  H     -843.158     477.803     140.447
  H     -844.372     477.112     141.497
  H     -843.653     478.655     141.890

 6  7  8  9  10  11  12  13  14  15  16  26  30  31  32  33  35 0
 6-311+G(2d,p)
 ****
 37  38 0
 6-311+G(2d,p)
 ****
 1  2  3  4  5  17  18  19  20  21  22  23  24  25 0
 3-21G
 ****
 27  28  29  34  36  39  40  41  42  43  44  45  46 0
 3-21G
 ****


