%nproc=1
%NoSave
%Mem=1900MB
#P OB98/GEN NMR

erre ene a

0 1
  C     -140.149     161.258      -1.228
  O     -141.134     160.519      -1.924
  H     -139.176     160.790      -1.397
  H     -140.360     161.257      -0.155
  H     -140.115     162.284      -1.604
  P     -142.649     161.026      -1.776
  C     -143.495     158.580      -1.813
  O     -143.526     159.857      -2.437
  C     -144.156     157.533      -2.706
  O     -145.589     157.634      -2.617
  C     -143.811     157.659      -4.184
  O     -142.571     157.026      -4.460
  C     -144.971     156.907      -4.818
  O     -144.721     155.490      -4.757
  C     -146.153     157.269      -3.901
  N     -149.120     158.992      -7.719
  C     -148.282     157.936      -7.643
  N     -147.483     157.570      -6.617
  C     -147.615     158.417      -5.583
  C     -148.430     159.538      -5.518
  C     -149.215     159.816      -6.649
  N     -150.069     160.895      -6.724
  N     -148.301     160.170      -4.299
  C     -147.468     159.408      -3.619
  N     -146.997     158.356      -4.364
  O     -142.919     162.408      -2.265
  O     -142.895     160.799      -0.210
  H     -143.833     155.343      -5.135
  H     -142.495     159.960       0.080
  H     -148.245     157.304      -8.524
  H     -147.190     159.561      -2.582
  H     -146.814     156.411      -3.736
  H     -145.111     157.160      -5.870
  H     -143.832     158.702      -4.520
  H     -143.877     156.541      -2.325
  H     -144.010     158.619      -0.846
  H     -150.440     161.125      -7.632
  H     -150.036     161.574      -5.978
  H     -142.446     158.322      -1.636
  P     -141.326     157.857      -5.035
  C     -140.963     156.111      -6.887
  O     -140.399     156.767      -5.757
  O     -140.649     158.728      -4.035
  O     -141.935     158.680      -6.263
  H     -141.331     159.407      -6.510
  H     -140.257     155.411      -7.282
  H     -141.204     156.836      -7.636
  H     -141.852     155.593      -6.592

 6  7  8  9  10  11  12  13  14  15  25  28  32  33  34  35 0
 6-311+G(2d,p)
 ****
 36  39  40 0
 6-311+G(2d,p)
 ****
 1  2  3  4  5  16  17  18  19  20  21  22  23  24 0
 3-21G
 ****
 26  27  29  30  31  37  38  41  42  43  44  45  46  47 0
 3-21G
 ****
 48 0
 3-21G
 ****


