%nproc=1
%NoSave
%Mem=1900MB
#P OB98/GEN NMR

erre ene a

0 1
  C       79.197     146.551     566.346
  O       78.685     146.014     565.140
  H       79.692     147.502     566.125
  H       79.927     145.869     566.789
  H       78.384     146.739     567.055
  P       77.914     144.612     565.202
  C       79.939     143.431     564.112
  O       79.049     143.483     565.224
  C       80.073     142.002     563.612
  O       80.727     141.180     564.604
  C       78.739     141.322     563.303
  O       78.265     141.717     562.025
  C       79.147     139.858     563.363
  O       79.854     139.506     562.164
  C       80.114     139.864     564.567
  N       78.067     136.356     567.604
  C       78.558     136.233     566.316
  N       78.445     135.017     565.740
  N       79.090     137.227     565.640
  C       79.069     138.399     566.324
  C       78.595     138.643     567.595
  C       78.062     137.527     568.345
  O       77.631     137.580     569.495
  N       78.682     139.972     567.917
  C       79.244     140.529     566.858
  N       79.483     139.619     565.854
  O       76.860     144.386     564.157
  O       77.312     144.565     566.684
  H       79.207     139.537     561.435
  H       76.406     144.920     566.709
  H       77.652     135.554     568.057
  H       79.494     141.581     566.767
  H       80.917     139.124     564.456
  H       78.304     139.181     563.467
  H       77.806     134.314     566.088
  H       77.997     141.514     564.091
  H       78.756     134.924     564.778
  H       80.723     142.012     562.726
  H       80.909     143.813     564.455
  H       79.574     144.074     563.306
  P       76.687     141.779     561.705
  C       76.584     139.543     560.405
  O       76.234     140.244     561.594
  O       76.319     142.628     560.539
  O       76.018     142.241     563.079
  H       75.961     143.225     563.183
  H       76.223     138.538     560.464
  H       77.648     139.534     560.297
  H       76.144     140.031     559.561

 6  7  8  9  10  11  12  13  14  15  26  29  33  34 0
 6-311+G(2d,p)
 ****
 36  38  39  40  41 0
 6-311+G(2d,p)
 ****
 1  2  3  4  5  16  17  18  19  20  21  22  23  24  25 0
 3-21G
 ****
 27  28  30  31  32  35  37  42  43  44  45  46  47 0
 3-21G
 ****
 48  49 0
 3-21G
 ****


