%nproc=1
%NoSave
%Mem=1900MB
#P OB98/GEN NMR

erre ene a

0 1
  C       88.988     404.261      19.191
  O       90.197     404.877      18.789
  P       90.234     406.486      18.742
  C       88.676     408.191      17.557
  O       89.321     406.926      17.502
  C       87.953     408.508      16.244
  O       86.820     407.625      16.100
  C       87.448     409.948      16.140
  O       87.608     410.380      14.783
  C       85.966     409.826      16.441
  O       85.216     410.896      15.876
  C       85.657     408.437      15.854
  N       84.451     407.845      16.431
  C       83.227     408.295      15.936
  O       83.192     409.203      15.115
  N       82.072     407.743      16.434
  C       82.135     406.887      17.410
  N       80.957     406.362      17.858
  C       83.403     406.479      18.049
  C       84.515     406.980      17.497
  O       91.722     406.793      18.241
  O       89.928     407.150      20.049
  H       85.512     411.733      16.296
  H       92.051     407.629      18.619
  H       83.400     405.800      18.884
  H       85.495     406.719      17.882
  H       85.517     408.506      14.767
  H       85.805     409.827      17.531
  H       87.976     410.639      16.810
  H       88.647     408.289      15.421
  H       80.107     406.670      17.419
  H       89.416     408.969      17.736
  H       80.915     405.696      18.621
  H       87.967     408.200      18.396
  P       87.307     411.916      14.444
  C       85.148     413.287      14.209
  O       85.729     412.091      14.691
  O       87.394     411.910      12.846
  O       88.206     412.960      15.027
  H       87.276     412.820      12.505
  H       84.057     413.214      14.317
  H       85.390     413.436      13.161
  H       85.501     414.137      14.803
  H       89.107     403.198      19.176
  H       88.204     404.542      18.519
  H       88.739     404.578      20.182

 3  4  5  6  7  8  9  10  11  12  13  21  23  27  28  29  30  32 0
 6-311+G(2d,p)
 ****
 34  35 0
 6-311+G(2d,p)
 ****
 1  2  14  15  16  17  18  19  20  22  24  25  26 0
 3-21G
 ****
 31  33  36  37  38  39  40  41  42  43  44  45  46 0
 3-21G
 ****


