%nproc=1
%NoSave
%Mem=1900MB
#P OB98/GEN NMR

erre ene a

0 1
  C      -87.884      40.287     -31.440
  O      -87.328      40.228     -32.741
  P      -87.236      41.554     -33.634
  C      -89.719      41.207     -34.333
  O      -88.734      42.087     -33.836
  C      -91.056      41.930     -34.539
  O      -91.463      42.484     -33.264
  C      -91.005      43.109     -35.507
  O      -92.338      43.413     -35.923
  C      -90.485      44.218     -34.620
  O      -90.767      45.510     -35.148
  C      -91.150      43.898     -33.257
  N      -90.257      44.219     -32.128
  C      -89.885      45.553     -31.980
  O      -90.327      46.455     -32.690
  N      -88.922      45.802     -31.040
  C      -88.283      44.856     -30.294
  O      -87.230      45.053     -29.696
  C      -88.882      43.513     -30.324
  C      -89.812      43.251     -31.247
  O      -86.835      40.984     -35.074
  O      -86.262      42.573     -33.149
  H      -90.740      46.140     -34.390
  H      -85.871      41.047     -35.205
  H      -88.548      46.745     -31.033
  H      -88.503      42.769     -29.637
  H      -90.236      42.253     -31.327
  H      -92.080      44.464     -33.123
  H      -89.394      44.127     -34.536
  H      -90.364      42.946     -36.378
  H      -91.818      41.206     -34.852
  H      -89.837      40.368     -33.640
  H      -89.397      40.775     -35.288
  P      -92.551      43.968     -37.414
  C      -93.056      46.293     -36.443
  O      -92.269      45.546     -37.352
  O      -93.821      43.567     -38.086
  O      -91.263      43.412     -38.192
  H      -91.428      43.428     -39.153
  H      -92.481      47.159     -36.108
  H      -93.337      45.695     -35.571
  H      -93.959      46.641     -36.951
  H      -87.862      39.313     -30.998
  H      -88.896      40.629     -31.500
  H      -87.314      40.964     -30.839

 3  4  5  6  7  8  9  10  11  12  13  23  28  29  30  31  32 0
 6-311+G(2d,p)
 ****
 33  34 0
 6-311+G(2d,p)
 ****
 1  2  14  15  16  17  18  19  20  21  22  24  25  26  27 0
 3-21G
 ****
 35  36  37  38  39  40  41  42  43  44  45 0
 3-21G
 ****


