%nproc=1
%NoSave
%Mem=1900MB
#P OB98/GEN NMR

erre ene a

0 1
  C      221.190     363.343      71.587
  O      221.186     363.991      72.867
  P      222.133     365.250      73.180
  C      224.095     364.000      74.266
  O      223.682     364.808      73.172
  C      225.618     363.862      74.378
  O      226.153     363.062      73.284
  C      226.393     365.191      74.353
  O      227.557     364.980      75.161
  C      226.772     365.319      72.894
  O      227.840     366.227      72.659
  C      227.100     363.868      72.562
  N      229.701     363.895      68.144
  C      230.101     364.044      69.424
  N      229.356     363.994      70.548
  C      228.077     363.706      70.265
  C      227.519     363.515      69.009
  C      228.390     363.630      67.907
  N      227.978     363.525      66.597
  N      226.159     363.272      69.104
  C      225.905     363.328      70.395
  N      227.029     363.584      71.139
  O      221.729     366.029      74.391
  O      222.009     366.172      71.875
  H      228.626     365.903      73.139
  H      221.876     367.100      72.150
  H      231.159     364.248      69.563
  H      224.927     363.214      70.846
  H      228.104     363.597      72.908
  H      225.901     365.681      72.324
  H      225.809     366.040      74.722
  H      225.840     363.314      75.304
  H      223.652     363.002      74.151
  H      228.656     363.719      65.878
  H      226.993     363.459      66.398
  H      223.700     364.434      75.194
  P      227.588     365.367      76.715
  C      229.473     367.089      76.555
  O      228.091     366.886      76.808
  O      228.332     364.403      77.587
  O      226.046     365.462      77.138
  H      225.962     365.392      78.103
  H      230.058     366.784      77.429
  H      229.646     368.158      76.365
  H      229.798     366.523      75.683
  H      220.490     362.534      71.595
  H      222.170     362.965      71.382
  H      220.914     364.047      70.830

 3  4  5  6  7  8  9  10  11  12  22  25  29  30  31  32 0
 6-311+G(2d,p)
 ****
 33  36  37 0
 6-311+G(2d,p)
 ****
 1  2  13  14  15  16  17  18  19  20  21  23  24  26 0
 3-21G
 ****
 27  28  34  35  38  39  40  41  42  43  44  45  46  47  48 0
 3-21G
 ****


