%nproc=1
%NoSave
%Mem=1900MB
#P OB98/GEN NMR

erre ene a

0 1
  C     -255.422    -114.244      53.695
  O     -255.855    -114.700      54.966
  P     -257.270    -115.446      55.071
  C     -259.763    -114.689      54.742
  O     -258.391    -114.342      54.749
  C     -260.604    -113.517      54.214
  O     -260.113    -113.141      52.896
  C     -262.104    -113.820      54.078
  O     -262.811    -112.614      54.391
  C     -262.242    -114.155      52.601
  O     -263.572    -113.991      52.126
  C     -261.232    -113.175      51.989
  N     -260.789    -113.558      50.647
  C     -261.297    -112.839      49.566
  O     -262.106    -111.920      49.674
  N     -260.856    -113.237      48.333
  C     -260.037    -114.298      48.069
  O     -259.688    -114.621      46.941
  C     -259.573    -115.049      49.244
  C     -259.957    -114.645      50.459
  O     -257.386    -115.670      56.651
  O     -257.356    -116.687      54.246
  H     -257.003    -114.940      57.167
  H     -263.602    -114.287      51.199
  H     -261.183    -112.707      47.534
  H     -258.928    -115.906      49.080
  H     -259.631    -115.184      51.342
  H     -261.658    -112.165      51.962
  H     -261.948    -115.195      52.432
  H     -262.432    -114.625      54.740
  H     -260.447    -112.656      54.879
  H     -260.088    -114.924      55.759
  H     -259.911    -115.577      54.123
  P     -263.913    -112.665      55.564
  C     -266.374    -113.540      55.756
  O     -265.226    -113.351      54.956
  O     -264.323    -111.111      55.632
  O     -263.420    -113.191      56.870
  H     -264.508    -110.733      54.761
  H     -267.239    -113.696      55.104
  H     -266.573    -112.670      56.389
  H     -266.240    -114.425      56.384
  H     -254.467    -113.771      53.792
  H     -256.130    -113.541      53.308
  H     -255.342    -115.075      53.026

 3  4  5  6  7  8  9  10  11  12  13  24  28  29  30  31  32 0
 6-311+G(2d,p)
 ****
 33  34 0
 6-311+G(2d,p)
 ****
 1  2  14  15  16  17  18  19  20  21  22  23  25  26  27 0
 3-21G
 ****
 35  36  37  38  39  40  41  42  43  44  45 0
 3-21G
 ****


