%nproc=1
%NoSave
%Mem=1900MB
#P OB98/GEN NMR

erre ene a

0 1
  C      488.486     463.512    -496.826
  O      487.401     463.065    -496.037
  H      489.421     463.250    -496.320
  H      488.437     464.600    -496.925
  H      488.470     463.040    -497.815
  P      485.953     463.066    -496.719
  C      485.094     464.721    -494.924
  O      484.894     463.485    -495.581
  C      483.949     464.998    -493.945
  O      482.845     465.600    -494.680
  C      483.407     463.745    -493.241
  O      483.081     464.069    -491.895
  C      482.138     463.424    -494.019
  O      481.194     462.684    -493.239
  C      481.668     464.814    -494.406
  N      476.843     464.882    -495.884
  C      477.396     465.028    -494.623
  N      476.532     465.225    -493.602
  N      478.690     465.004    -494.385
  C      479.425     464.844    -495.512
  C      479.006     464.673    -496.810
  C      477.572     464.681    -497.049
  O      477.027     464.526    -498.143
  N      480.063     464.505    -497.661
  C      481.132     464.570    -496.881
  N      480.791     464.779    -495.564
  O      485.659     461.511    -496.947
  O      485.847     463.836    -497.996
  H      480.464     462.411    -493.841
  H      485.598     461.324    -497.905
  H      475.850     464.899    -496.005
  H      482.157     464.467    -497.212
  H      481.106     465.312    -493.597
  H      482.386     462.835    -494.908
  H      475.532     465.305    -493.716
  H      484.119     462.911    -493.253
  H      476.915     465.370    -492.676
  H      484.281     465.747    -493.217
  H      485.145     465.520    -495.660
  H      486.046     464.692    -494.372
  P      484.305     464.222    -490.865
  C      483.953     461.926    -489.716
  O      483.978     463.332    -489.555
  O      484.162     465.731    -490.345
  O      485.645     463.976    -491.481
  H      484.876     466.277    -490.719
  H      483.726     461.464    -488.778
  H      484.909     461.589    -490.058
  H      483.204     461.662    -490.434

 6  7  8  9  10  11  12  13  14  15  26  29  33  34 0
 6-311+G(2d,p)
 ****
 36  38  39  40  41 0
 6-311+G(2d,p)
 ****
 1  2  3  4  5  16  17  18  19  20  21  22  23  24  25 0
 3-21G
 ****
 27  28  30  31  32  35  37  42  43  44  45  46  47 0
 3-21G
 ****
 48  49 0
 3-21G
 ****


