%nproc=1
%NoSave
%Mem=1900MB
#P OB98/GEN NMR

erre ene a

0 1
  C     -375.806     145.281     152.758
  O     -375.618     145.886     151.482
  P     -374.754     147.236     151.423
  C     -373.476     146.632     149.210
  O     -374.359     147.505     149.892
  C     -373.118     147.185     147.818
  O     -374.329     147.241     147.018
  C     -372.560     148.605     147.801
  O     -371.891     148.826     146.555
  C     -373.827     149.440     147.847
  O     -373.592     150.781     147.430
  C     -374.793     148.619     146.955
  N     -376.204     148.701     147.385
  C     -376.751     149.963     147.625
  O     -376.131     151.020     147.500
  N     -378.054     149.982     148.054
  C     -378.859     148.894     148.228
  O     -379.991     148.960     148.698
  C     -378.277     147.601     147.829
  C     -376.997     147.564     147.446
  O     -373.368     146.822     152.119
  O     -375.399     148.397     152.103
  H     -374.475     151.226     147.407
  H     -373.317     147.206     153.016
  H     -378.444     150.885     148.297
  H     -378.907     146.720     147.888
  H     -376.548     146.612     147.164
  H     -374.748     148.955     145.915
  H     -374.208     149.475     148.871
  H     -371.886     148.841     148.632
  H     -372.427     146.493     147.320
  H     -373.927     145.642     149.123
  H     -372.559     146.507     149.797
  P     -370.390     149.387     146.589
  C     -369.597     147.451     145.092
  O     -369.679     148.858     145.249
  O     -369.638     149.160     147.861
  O     -370.586     150.954     146.285
  H     -369.796     151.445     146.571
  H     -369.602     147.220     144.025
  H     -370.447     146.942     145.569
  H     -368.665     147.088     145.538
  H     -376.396     144.395     152.649
  H     -376.308     145.967     153.407
  H     -374.854     145.026     153.176

 3  4  5  6  7  8  9  10  11  12  13  23  28  29  30  31  32 0
 6-311+G(2d,p)
 ****
 33  34 0
 6-311+G(2d,p)
 ****
 1  2  14  15  16  17  18  19  20  21  22  24  25  26  27 0
 3-21G
 ****
 35  36  37  38  39  40  41  42  43  44  45 0
 3-21G
 ****


