%nproc=1
%NoSave
%Mem=1900MB
#P OB98/GEN NMR

erre ene a

0 1
  C      -14.621     594.363     -39.562
  O      -15.906     593.755     -39.561
  P      -16.328     592.904     -38.265
  C      -18.643     592.225     -39.334
  O      -17.398     591.828     -38.788
  C      -19.241     591.100     -40.177
  O      -18.422     590.867     -41.345
  C      -19.318     589.751     -39.463
  O      -20.408     589.706     -38.550
  C      -19.454     588.795     -40.646
  O      -20.805     588.773     -41.129
  C      -18.526     589.469     -41.687
  N      -17.210     588.836     -41.796
  C      -16.797     588.480     -43.068
  O      -17.473     588.678     -44.080
  N      -15.577     587.870     -43.145
  C      -14.773     587.522     -42.090
  O      -13.705     586.932     -42.221
  C      -15.283     587.897     -40.765
  C      -16.455     588.527     -40.678
  O      -17.198     593.989     -37.476
  O      -15.160     592.355     -37.515
  H      -17.599     594.641     -38.073
  H      -21.027     589.693     -41.383
  H      -15.239     587.620     -44.066
  H      -14.681     587.632     -39.904
  H      -16.859     588.798     -39.705
  H      -19.003     589.436     -42.684
  H      -19.169     587.770     -40.394
  H      -18.382     589.556     -38.934
  H      -20.234     591.415     -40.514
  H      -18.479     593.107     -39.966
  H      -19.318     592.504     -38.525
  P      -20.451     588.436     -37.554
  C      -22.286     589.579     -36.079
  O      -21.891     588.464     -36.861
  O      -19.434     588.899     -36.399
  O      -20.088     587.142     -38.227
  H      -19.559     589.828     -36.160
  H      -23.376     589.590     -35.994
  H      -21.956     590.521     -36.541
  H      -21.847     589.496     -35.081
  H      -14.478     594.893     -40.481
  H      -13.869     593.608     -39.465
  H      -14.549     595.046     -38.742

 3  4  5  6  7  8  9  10  11  12  13  24  28  29  30  31  32 0
 6-311+G(2d,p)
 ****
 33  34 0
 6-311+G(2d,p)
 ****
 1  2  14  15  16  17  18  19  20  21  22  23  25  26  27 0
 3-21G
 ****
 35  36  37  38  39  40  41  42  43  44  45 0
 3-21G
 ****


