%nproc=1
%NoSave
%Mem=1900MB
#P OB98/GEN NMR

erre ene a

0 1
  C        0.041     202.864     613.001
  O        0.942     201.980     613.624
  P        2.026     202.547     614.660
  C        4.153     204.004     614.571
  O        3.112     203.385     613.817
  C        5.520     203.453     614.161
  O        5.865     203.912     612.823
  C        6.667     203.920     615.053
  O        6.679     203.204     616.276
  C        7.860     203.652     614.159
  O        8.240     202.266     614.211
  C        7.294     203.975     612.747
  N       10.806     206.579     610.075
  C       10.763     205.280     610.512
  N        9.812     204.694     611.258
  C        8.833     205.558     611.589
  C        8.759     206.912     611.241
  C        9.787     207.410     610.429
  N        9.810     208.697     609.935
  N        7.615     207.475     611.779
  C        7.022     206.483     612.440
  N        7.693     205.303     612.286
  O        2.608     201.541     615.628
  O        1.232     203.696     615.443
  H        8.597     202.098     615.112
  H        1.210     203.480     616.409
  H       11.599     204.664     610.220
  H        6.103     206.584     613.015
  H        7.625     203.244     612.003
  H        8.745     204.235     614.430
  H        6.590     204.999     615.229
  H        5.466     202.356     614.150
  H        3.991     203.798     615.642
  H       10.529     208.902     609.250
  H        8.940     209.232     609.936
  H        4.103     205.095     614.407
  P        7.822     203.503     617.361
  C       10.392     203.313     617.452
  O        9.218     203.057     616.684
  O        7.569     202.973     618.740
  O        7.929     205.121     617.376
  H        8.162     205.414     618.275
  H       10.651     204.375     617.387
  H       11.208     202.716     617.067
  H       10.225     203.044     618.513
  H       -0.604     202.314     612.348
  H        0.587     203.590     612.436
  H       -0.545     203.360     613.746

 3  4  5  6  7  8  9  10  11  12  22  25  29  30  31  32 0
 6-311+G(2d,p)
 ****
 33  36  37 0
 6-311+G(2d,p)
 ****
 1  2  13  14  15  16  17  18  19  20  21  23  24  26 0
 3-21G
 ****
 27  28  34  35  38  39  40  41  42  43  44  45  46  47  48 0
 3-21G
 ****


