%nproc=1
%NoSave
%Mem=1900MB
#P OB98/GEN NMR

erre ene a

0 1
  C      148.555     -23.222      65.707
  O      148.453     -21.857      66.056
  H      149.605     -23.457      65.509
  H      147.974     -23.423      64.803
  H      148.200     -23.853      66.526
  P      146.990     -21.315      66.429
  C      146.585     -19.874      64.303
  O      146.242     -21.045      65.035
  C      145.352     -18.989      64.139
  O      145.767     -17.639      63.830
  C      144.430     -19.405      62.998
  O      143.599     -20.495      63.359
  C      143.663     -18.112      62.751
  O      142.565     -17.969      63.662
  C      144.721     -17.037      63.035
  N      144.383     -13.191      59.706
  C      143.737     -13.442      60.867
  N      143.900     -14.486      61.708
  C      144.851     -15.317      61.249
  C      145.586     -15.196      60.081
  C      145.325     -14.068      59.287
  N      145.957     -13.831      58.090
  N      146.434     -16.276      59.931
  C      146.222     -17.028      60.991
  N      145.278     -16.486      61.816
  O      147.286     -19.845      66.992
  O      146.233     -22.149      67.408
  H      142.914     -18.170      64.553
  H      147.356     -19.875      67.965
  H      142.988     -12.709      61.156
  H      146.715     -17.971      61.199
  H      144.316     -16.200      63.614
  H      143.252     -18.081      61.741
  H      145.017     -19.644      62.103
  H      144.808     -18.968      65.091
  H      146.955     -20.162      63.312
  H      147.376     -19.340      64.838
  H      145.702     -13.012      57.561
  H      146.582     -14.532      57.717
  P      143.346     -21.653      62.282
  C      140.978     -20.759      61.681
  O      142.276     -21.104      61.220
  O      142.530     -22.751      63.111
  O      144.584     -22.218      61.673
  H      143.123     -23.474      63.393
  H      140.388     -20.413      60.858
  H      141.055     -19.985      62.416
  H      140.514     -21.619      62.116

 6  7  8  9  10  11  12  13  14  15  25  28  32  33  34  35 0
 6-311+G(2d,p)
 ****
 36  37  40 0
 6-311+G(2d,p)
 ****
 1  2  3  4  5  16  17  18  19  20  21  22  23  24 0
 3-21G
 ****
 26  27  29  30  31  38  39 41  42  43  44  45  46  47  48 0
 3-21G
 ****


