%nproc=1
%NoSave
%Mem=1900MB
#P OB98/GEN NMR

erre ene a

0 1
  C      651.105     904.551    -816.205
  O      652.314     905.214    -815.891
  H      651.267     903.471    -816.071
  H      650.811     904.733    -817.238
  H      650.316     904.866    -815.526
  P      652.433     906.782    -816.257
  C      652.961     907.627    -813.864
  O      651.994     907.560    -814.919
  C      653.571     909.022    -813.769
  O      652.531     910.007    -813.537
  C      654.538     909.194    -812.608
  O      655.750     908.470    -812.755
  C      654.582     910.700    -812.423
  O      655.507     911.351    -813.273
  C      653.135     911.111    -812.836
  N      652.334     911.528    -811.688
  C      651.635     912.725    -811.836
  O      651.691     913.412    -812.863
  N      650.896     913.133    -810.761
  C      650.832     912.489    -809.551
  O      650.189     912.921    -808.602
  C      651.619     911.242    -809.444
  C      652.333     910.829    -810.501
  O      651.686     907.218    -817.480
  O      654.004     907.040    -816.337
  H      656.405     910.982    -813.060
  H      654.202     907.888    -816.797
  H      650.365     913.976    -810.859
  H      651.601     910.713    -808.494
  H      652.920     909.914    -810.420
  H      653.165     911.947    -813.545
  H      654.829     910.967    -811.397
  H      654.067     908.789    -811.710
  H      654.057     909.250    -814.723
  H      653.752     906.902    -814.097
  H      652.489     907.336    -812.915
  P      656.754     908.151    -811.557
  C      655.793     905.784    -811.025
  O      656.014     907.109    -810.572
  O      657.486     909.313    -810.976
  O      657.832     907.203    -812.278
  H      658.705     907.374    -811.872
  H      655.296     905.224    -810.261
  H      656.732     905.323    -811.252
  H      655.184     905.805    -811.905

 6  7  8  9  10  11  12  13  14  15  16  26  31  32  33  34  35 0
 6-311+G(2d,p)
 ****
 36  37 0
 6-311+G(2d,p)
 ****
 1  2  3  4  5  17  18  19  20  21  22  23  24  25 0
 3-21G
 ****
 27  28  29  30  38  39  40  41  42  43  44  45 0
 3-21G
 ****


