%nproc=1
%NoSave
%Mem=1900MB
#P OB98/GEN NMR

erre ene a

0 1
  C       88.905     212.068     -16.730
  O       87.573     211.890     -17.170
  H       88.913     212.610     -15.782
  H       89.358     211.085     -16.580
  H       89.487     212.614     -17.478
  P       86.779     213.209     -17.619
  C       85.003     211.975     -19.061
  O       85.267     212.737     -17.892
  C       85.136     210.480     -18.764
  O       84.408     210.179     -17.544
  C       84.575     209.585     -19.873
  O       85.421     208.442     -20.017
  C       83.220     209.160     -19.333
  O       82.776     207.930     -19.894
  C       83.497     209.101     -17.833
  N       79.953     206.568     -15.171
  C       81.105     206.168     -15.749
  N       81.999     206.910     -16.437
  C       81.626     208.202     -16.455
  C       80.480     208.758     -15.913
  C       79.610     207.876     -15.251
  N       78.416     208.268     -14.691
  N       80.432     210.115     -16.172
  C       81.530     210.370     -16.857
  N       82.279     209.245     -17.056
  O       87.361     213.475     -19.090
  O       86.937     214.397     -16.732
  H       81.880     207.740     -19.548
  H       88.230     213.912     -19.020
  H       81.339     205.111     -15.653
  H       81.821     211.340     -17.235
  H       83.967     208.158     -17.529
  H       82.474     209.929     -19.562
  H       84.492     210.099     -20.832
  H       86.191     210.254     -18.567
  H       85.719     212.257     -19.839
  H       77.828     207.559     -14.285
  H       78.115     209.226     -14.793
  H       83.989     212.192     -19.412
  P       86.764     208.641     -20.873
  C       88.351     208.050     -18.912
  O       87.921     207.735     -20.228
  O       87.210     210.137     -20.521
  O       86.566     208.464     -22.344
  H       87.397     210.631     -21.340
  H       89.120     207.368     -18.615
  H       87.524     207.970     -18.238
  H       88.733     209.049     -18.891

 6  7  8  9  10  11  12  13  14  15  25  28  32  33  34  35 0
 6-311+G(2d,p)
 ****
 36  39  40 0
 6-311+G(2d,p)
 ****
 1  2  3  4  5  16  17  18  19  20  21  22  23  24 0
 3-21G
 ****
 26  27  29  30  31  37  38  41  42  43  44  45  46  47 0
 3-21G
 ****
 48 0
 3-21G
 ****


