%nproc=1
%NoSave
%Mem=1900MB
#P OB98/GEN NMR

erre ene a

0 1
  C     -327.869    -168.093     171.788
  O     -329.012    -167.258     171.797
  P     -330.104    -167.347     170.636
  C     -329.530    -164.909     169.839
  O     -329.740    -166.267     169.518
  C     -329.127    -164.153     168.566
  O     -327.701    -164.240     168.369
  C     -329.808    -164.732     167.330
  O     -330.995    -164.014     167.033
  C     -328.738    -164.594     166.264
  O     -328.722    -163.255     165.738
  C     -327.450    -164.864     167.082
  N     -327.062    -166.265     167.323
  C     -325.718    -166.589     167.496
  O     -324.813    -165.760     167.496
  N     -325.440    -167.925     167.651
  C     -326.363    -168.929     167.692
  O     -326.095    -170.123     167.588
  C     -327.762    -168.504     167.776
  C     -328.043    -167.217     167.565
  O     -331.416    -166.738     171.324
  O     -330.345    -168.713     170.083
  H     -329.581    -163.107     165.303
  H     -332.003    -167.451     171.634
  H     -324.457    -168.177     167.639
  H     -328.518    -169.255     167.948
  H     -329.078    -166.878     167.585
  H     -326.587    -164.364     166.630
  H     -328.935    -165.251     165.419
  H     -330.021    -165.800     167.477
  H     -329.386    -163.094     168.685
  H     -328.749    -164.820     170.602
  H     -330.445    -164.478     170.260
  P     -331.981    -164.549     165.890
  C     -332.079    -162.291     164.681
  O     -331.666    -163.641     164.604
  O     -333.419    -164.650     166.272
  O     -331.363    -165.983     165.519
  H     -331.853    -166.687     165.989
  H     -331.657    -161.744     163.835
  H     -331.730    -161.833     165.610
  H     -333.170    -162.232     164.626
  H     -327.265    -167.880     172.645
  H     -327.302    -167.912     170.899
  H     -328.176    -169.118     171.813

 3  4  5  6  7  8  9  10  11  12  13  23  28  29  30  31  32 0
 6-311+G(2d,p)
 ****
 33  34 0
 6-311+G(2d,p)
 ****
 1  2  14  15  16  17  18  19  20  21  22  24  25  26  27 0
 3-21G
 ****
 35  36  37  38  39  40  41  42  43  44  45 0
 3-21G
 ****


