%nproc=1
%NoSave
%Mem=1900MB
#P OB98/GEN NMR

erre ene a

0 1
  C     1407.944     792.967    -432.485
  O     1408.384     792.307    -431.307
  P     1407.543     791.105    -430.665
  C     1405.595     790.934    -428.984
  O     1406.380     791.787    -429.828
  C     1404.365     791.648    -428.434
  O     1404.839     792.725    -427.534
  C     1403.429     792.289    -429.465
  O     1402.119     792.182    -428.918
  C     1403.916     793.702    -429.494
  O     1402.922     794.604    -430.045
  C     1404.222     793.967    -428.023
  N     1405.113     795.107    -427.829
  C     1404.632     796.130    -427.000
  O     1403.496     796.071    -426.508
  N     1405.441     797.235    -426.758
  C     1406.582     797.321    -427.372
  N     1407.357     798.400    -427.078
  C     1407.061     796.342    -428.331
  C     1406.298     795.239    -428.523
  O     1408.357     790.087    -429.941
  O     1406.735     790.498    -431.914
  H     1403.267     795.509    -430.006
  H     1407.348     789.930    -432.477
  H     1408.013     796.480    -428.864
  H     1406.558     794.449    -429.207
  H     1403.307     794.120    -427.420
  H     1404.806     793.800    -430.114
  H     1403.488     791.766    -430.427
  H     1403.820     790.943    -427.777
  H     1406.979     799.052    -426.375
  H     1406.230     790.563    -428.163
  H     1408.285     798.550    -427.439
  H     1405.288     790.036    -429.580
  P     1400.817     792.398    -429.837
  C     1399.331     794.401    -430.348
  O     1400.629     793.987    -429.976
  O     1399.598     791.649    -429.382
  O     1401.279     791.943    -431.327
  H     1400.485     791.817    -431.876
  H     1399.250     795.521    -430.160
  H     1398.555     793.917    -429.774
  H     1399.140     794.238    -431.421
  H     1408.643     793.734    -432.746
  H     1406.983     793.404    -432.311
  H     1407.875     792.260    -433.285

 3  4  5  6  7  8  9  10  11  12  13  23  27  28  29  30  32 0
 6-311+G(2d,p)
 ****
 34  35 0
 6-311+G(2d,p)
 ****
 1  2  14  15  16  17  18  19  20  21  22  24  25  26 0
 3-21G
 ****
 31  33  36  37  38  39  40  41  42  43  44  45  46 0
 3-21G
 ****


