%nproc=1
%NoSave
%Mem=1900MB
#P OB98/GEN NMR

erre ene a

0 1
  C     -446.285    -950.087    1051.405
  O     -445.631    -949.064    1050.667
  H     -445.706    -951.008    1051.303
  H     -447.290    -950.260    1051.006
  H     -446.335    -949.812    1052.454
  P     -446.354    -947.627    1050.655
  C     -444.441    -946.728    1052.153
  O     -445.169    -946.584    1050.936
  C     -443.148    -945.931    1052.103
  O     -442.256    -946.476    1051.118
  C     -443.340    -944.455    1051.743
  O     -443.695    -943.693    1052.879
  C     -441.928    -944.090    1051.251
  O     -441.087    -943.825    1052.388
  C     -441.475    -945.391    1050.543
  N     -439.215    -944.541    1046.016
  C     -438.829    -944.275    1047.259
  N     -439.513    -944.475    1048.428
  C     -440.698    -945.034    1048.186
  C     -441.239    -945.366    1046.949
  C     -440.439    -945.117    1045.820
  N     -440.863    -945.405    1044.524
  N     -442.495    -945.918    1047.091
  C     -442.687    -945.969    1048.389
  N     -441.646    -945.419    1049.106
  O     -447.572    -947.500    1051.502
  O     -446.612    -947.440    1049.078
  H     -440.223    -943.526    1052.031
  H     -445.847    -947.753    1048.570
  H     -437.838    -943.837    1047.357
  H     -443.557    -946.424    1048.878
  H     -440.424    -945.611    1050.739
  H     -441.922    -943.199    1050.626
  H     -444.039    -944.336    1050.916
  H     -442.650    -946.030    1053.084
  H     -444.215    -947.784    1052.336
  H     -440.304    -945.015    1043.794
  H     -441.802    -945.694    1044.395
  H     -445.083    -946.376    1052.968
  P     -444.565    -942.351    1052.752
  C     -446.604    -943.853    1053.238
  O     -445.908    -942.664    1053.576
  O     -444.749    -941.872    1051.352
  O     -443.799    -941.304    1053.674
  H     -444.102    -940.397    1053.463
  H     -447.474    -943.945    1053.854
  H     -445.965    -944.697    1053.395
  H     -446.898    -943.814    1052.210

 6  7  8  9  10  11  12  13  14  15  25  28  32  33  34  35 0
 6-311+G(2d,p)
 ****
 36  39  40 0
 6-311+G(2d,p)
 ****
 1  2  3  4  5  16  17  18  19  20  21  22  23  24 0
 3-21G
 ****
 26  27  29  30  31  37  38  41  42  43  44  45  46  47 0
 3-21G
 ****
 48 0
 3-21G
 ****


