%nproc=1
%NoSave
%Mem=1900MB
#P OB98/GEN NMR

erre ene a

0 1
  C      390.950     658.343    -740.286
  O      389.945     657.679    -741.025
  H      390.578     659.346    -740.031
  H      391.864     658.451    -740.870
  H      391.155     657.805    -739.362
  P      390.328     656.292    -741.748
  C      388.172     655.153    -740.880
  O      389.603     655.151    -740.884
  C      387.613     653.970    -741.660
  O      387.903     652.735    -740.967
  C      386.100     653.990    -741.818
  O      385.622     655.016    -742.670
  C      385.777     652.539    -742.132
  O      385.895     652.216    -743.505
  C      386.879     651.788    -741.332
  N      386.333     651.099    -740.162
  C      385.442     650.061    -740.433
  O      385.105     649.744    -741.573
  N      384.914     649.427    -739.346
  C      385.159     649.753    -738.032
  O      384.619     649.172    -737.095
  C      386.087     650.877    -737.816
  C      386.619     651.494    -738.875
  O      391.798     656.055    -741.950
  O      389.492     656.318    -743.107
  H      385.110     652.609    -743.963
  H      389.836     655.655    -743.745
  H      384.288     648.662    -739.513
  H      386.289     651.173    -736.788
  H      387.302     652.332    -738.719
  H      387.369     651.037    -741.964
  H      384.765     652.280    -741.822
  H      385.661     654.196    -740.834
  H      388.109     653.941    -742.637
  H      387.846     656.091    -741.353
  H      387.805     655.148    -739.844
  P      384.833     656.309    -742.155
  C      386.711     658.063    -742.577
  O      385.925     657.364    -741.623
  O      383.605     656.058    -741.348
  O      384.374     656.976    -743.545
  H      383.502     657.399    -743.405
  H      387.385     658.722    -742.070
  H      386.071     658.632    -743.219
  H      387.270     657.362    -743.161

 6  7  8  9  10  11  12  13  14  15  16  26  31  32  33  34  35 0
 6-311+G(2d,p)
 ****
 36  37 0
 6-311+G(2d,p)
 ****
 1  2  3  4  5  17  18  19  20  21  22  23  24  25 0
 3-21G
 ****
 27  28  29  30  38  39  40  41  42  43  44  45 0
 3-21G
 ****


