%nproc=1
%NoSave
%Mem=1900MB
#P OB98/GEN NMR

erre ene a

0 1
  C     -179.392     -31.412    -341.366
  O     -180.027     -30.230    -341.857
  P     -179.444     -28.807    -341.401
  C     -181.791     -27.720    -341.368
  O     -180.465     -27.654    -341.894
  C     -182.737     -26.827    -342.194
  O     -183.245     -27.618    -343.316
  C     -183.984     -26.335    -341.447
  O     -183.895     -25.099    -340.734
  C     -184.953     -26.102    -342.597
  O     -184.716     -24.815    -343.184
  C     -184.595     -27.195    -343.598
  N     -189.421     -28.802    -344.293
  C     -188.832     -27.598    -344.469
  N     -187.539     -27.255    -344.254
  C     -186.829     -28.310    -343.845
  C     -187.283     -29.603    -343.638
  C     -188.649     -29.840    -343.872
  N     -189.244     -31.069    -343.699
  N     -186.251     -30.428    -343.207
  C     -185.208     -29.628    -343.134
  N     -185.488     -28.354    -343.531
  O     -178.008     -28.558    -341.713
  O     -179.694     -28.825    -339.817
  H     -183.742     -24.709    -343.244
  H     -178.941     -28.380    -339.376
  H     -189.489     -26.801    -344.809
  H     -184.214     -29.942    -342.810
  H     -184.619     -26.848    -344.638
  H     -186.004     -26.107    -342.267
  H     -184.373     -27.117    -340.777
  H     -182.183     -25.984    -342.602
  H     -181.785     -27.369    -340.328
  H     -190.237     -31.143    -343.853
  H     -188.704     -31.834    -343.329
  H     -182.096     -28.766    -341.352
  P     -183.821     -25.060    -339.136
  C     -185.095     -22.785    -339.234
  O     -184.020     -23.519    -338.725
  O     -182.626     -25.719    -338.535
  O     -185.217     -25.719    -338.708
  H     -186.000     -25.178    -338.926
  H     -185.181     -21.838    -338.683
  H     -186.040     -23.330    -339.106
  H     -184.925     -22.555    -340.295
  H     -179.892     -32.274    -341.756
  H     -179.440     -31.425    -340.297
  H     -178.368     -31.422    -341.677

 3  4  5  6  7  8  9  10  11  12  22  25  29  30  31  32 0
 6-311+G(2d,p)
 ****
 33  36  37 0
 6-311+G(2d,p)
 ****
 1  2  13  14  15  16  17  18  19  20  21  23  24  26 0
 3-21G
 ****
 27  28  34  35  38  39  40  41  42  43  44  45  46  47  48 0
 3-21G
 ****


