%nproc=1
%NoSave
%Mem=1900MB
#P OB98/GEN NMR

erre ene a

0 1
  C     -178.056    1334.616    -153.540
  O     -177.535    1335.462    -152.539
  H     -177.694    1334.963    -154.514
  H     -179.142    1334.653    -153.540
  H     -177.719    1333.583    -153.390
  P     -177.790    1335.096    -151.001
  C     -175.366    1334.798    -150.165
  O     -176.573    1334.157    -150.527
  C     -174.181    1333.818    -150.251
  O     -174.453    1332.691    -149.383
  C     -173.949    1333.274    -151.675
  O     -172.543    1333.155    -151.884
  C     -174.594    1331.905    -151.636
  O     -174.016    1331.012    -152.568
  C     -174.368    1331.493    -150.184
  N     -175.112    1326.620    -149.050
  C     -173.947    1327.296    -149.380
  N     -172.810    1326.555    -149.439
  N     -173.896    1328.576    -149.635
  C     -175.098    1329.183    -149.524
  C     -176.312    1328.629    -149.205
  C     -176.363    1327.210    -148.942
  O     -177.367    1326.557    -148.661
  N     -177.309    1329.590    -149.205
  C     -176.688    1330.703    -149.532
  N     -175.361    1330.517    -149.736
  O     -179.149    1334.563    -150.691
  O     -177.511    1336.460    -150.218
  H     -174.515    1330.169    -152.535
  H     -178.345    1336.875    -149.920
  H     -175.090    1325.636    -148.868
  H     -177.165    1331.675    -149.629
  H     -173.389    1331.037    -150.011
  H     -175.659    1331.982    -151.849
  H     -172.775    1325.567    -149.223
  H     -174.379    1333.921    -152.441
  H     -171.943    1327.028    -149.641
  H     -173.278    1334.322    -149.869
  H     -175.471    1335.157    -149.138
  H     -175.194    1335.654    -150.818
  P     -171.810    1334.144    -152.922
  C     -170.434    1335.072    -150.956
  O     -171.209    1335.392    -152.104
  O     -172.620    1334.491    -154.127
  O     -170.491    1333.323    -153.330
  H     -170.287    1333.503    -154.258
  H     -170.089    1335.974    -150.496
  H     -169.594    1334.477    -151.247
  H     -171.035    1334.524    -150.261

 6  7  8  9  10  11  12  13  14  15  26  29  33  34 0
 6-311+G(2d,p)
 ****
 36  38  39  40  41 0
 6-311+G(2d,p)
 ****
 1  2  3  4  5  16  17  18  19  20  21  22  23  24  25 0
 3-21G
 ****
 27  28  30  31  32  35  37  42  43  44  45  46  47 0
 3-21G
 ****
 48  49 0
 3-21G
 ****


