%nproc=1
%NoSave
%Mem=1900MB
#P OB98/GEN NMR

erre ene a

0 1
  C     -899.250    -745.824     134.395
  O     -899.720    -746.275     133.140
  H     -900.000    -746.067     135.158
  H     -899.120    -744.739     134.370
  H     -898.310    -746.307     134.665
  P     -898.740    -746.208     131.874
  C     -898.090    -748.666     132.345
  O     -897.630    -747.360     132.076
  C     -896.940    -749.602     132.729
  O     -896.270    -749.041     133.920
  C     -897.350    -751.040     133.067
  O     -896.270    -751.888     132.713
  C     -897.520    -750.943     134.587
  O     -897.650    -752.190     135.202
  C     -896.280    -750.098     134.912
  N     -896.240    -749.542     136.251
  C     -896.330    -750.411     137.329
  O     -896.430    -751.646     137.236
  N     -896.270    -749.842     138.593
  C     -896.150    -748.501     138.850
  O     -896.090    -748.049     139.980
  C     -896.070    -747.612     137.681
  C     -896.100    -748.172     136.434
  O     -898.200    -744.857     131.544
  O     -899.630    -746.790     130.674
  H     -899.960    -746.055     130.128
  H     -897.490    -752.084     136.168
  H     -896.340    -750.462     139.384
  H     -895.960    -746.560     137.827
  H     -896.030    -747.551     135.546
  H     -895.360    -750.704     134.741
  H     -898.440    -750.394     134.832
  H     -898.270    -751.356     132.550
  H     -896.190    -749.587     131.919
  H     -898.590    -749.049     131.429
  H     -898.840    -748.633     133.170
  P     -896.060    -752.507     131.252
  C     -893.630    -751.647     131.014
  O     -894.940    -751.629     130.483
  O     -897.320    -752.667     130.483
  O     -895.330    -753.929     131.473
  H     -895.550    -754.526     130.725
  H     -892.994    -751.030     130.415
  H     -893.258    -752.650     131.012
  H     -893.647    -751.275     132.017

 6  7  8  9  10  11  12  13  14  15  16  27  31  32  33  34  35 0
 6-311+G(2d,p)
 ****
 36  37 0
 6-311+G(2d,p)
 ****
 1  2  3  4  5  17  18  19  20  21  22  23  24  25 0
 3-21G
 ****
 26  28  29  30  38  39  40  41  42  43  44  45 0
 3-21G
 ****


