%nproc=1
%NoSave
%Mem=1900MB
#P OB98/GEN NMR

erre ene a

0 1
  C        4.668      42.552    -477.408
  O        4.184      41.462    -478.194
  P        4.781      39.999    -477.855
  C        6.672      38.476    -478.700
  O        6.013      39.711    -478.839
  C        7.375      38.047    -480.011
  O        6.432      37.945    -481.111
  C        8.489      39.023    -480.439
  O        9.516      38.247    -481.078
  C        7.790      39.861    -481.502
  O        8.745      40.508    -482.344
  C        6.890      38.819    -482.177
  N        5.784      39.406    -482.925
  C        6.087      39.910    -484.186
  O        7.244      39.928    -484.601
  N        5.065      40.438    -484.945
  C        3.862      40.490    -484.456
  N        2.891      41.020    -485.254
  C        3.501      40.006    -483.096
  C        4.521      39.477    -482.402
  O        3.627      39.004    -478.372
  O        5.053      39.805    -476.399
  H        8.241      41.041    -483.021
  H        3.404      38.361    -477.676
  H        2.500      40.077    -482.722
  H        4.369      39.089    -481.412
  H        7.487      38.195    -482.874
  H        7.184      40.647    -481.025
  H        8.911      39.603    -479.617
  H        7.815      37.050    -479.865
  H        3.161      41.339    -486.170
  H        5.947      37.683    -478.434
  H        1.932      41.118    -484.978
  H        7.381      38.521    -477.873
  P       11.041      38.733    -480.907
  C       12.726      39.920    -482.447
  O       11.410      39.412    -482.327
  O       11.827      37.325    -481.020
  O       11.416      39.479    -479.674
  H       12.785      37.477    -480.855
  H       12.870      40.241    -483.493
  H       13.462      39.140    -482.209
  H       12.846      40.801    -481.799
  H        4.199      43.459    -477.729
  H        5.728      42.636    -477.529
  H        4.440      42.378    -476.377

 3  4  5  6  7  8  9  10  11  12  13  21  23  27  28  29  30  32 0
 6-311+G(2d,p)
 ****
 34  35 0
 6-311+G(2d,p)
 ****
 1  2  14  15  16  17  18  19  20  22  24  25  26 0
 3-21G
 ****
 31  33  36  37  38  39  40  41  42  43  44  45  46 0
 3-21G
 ****


