%nproc=1
%NoSave
%Mem=1900MB
#P OB98/GEN NMR

erre ene a

0 1
  C      232.125     -20.910      70.478
  O      230.775     -20.513      70.335
  H      232.450     -20.689      71.498
  H      232.755     -20.356      69.776
  H      232.225     -21.984      70.299
  P      230.103     -20.769      68.902
  C      231.060     -23.151      68.443
  O      229.929     -22.358      68.773
  C      230.664     -24.629      68.341
  O      231.825     -25.394      67.899
  C      230.208     -25.244      69.675
  O      229.279     -26.301      69.379
  C      231.506     -25.841      70.197
  O      231.261     -26.735      71.258
  C      232.065     -26.412      68.898
  N      235.605     -29.898      67.692
  C      234.283     -29.831      67.428
  N      233.407     -28.866      67.772
  C      234.024     -27.878      68.441
  C      235.368     -27.801      68.776
  C      236.179     -28.876      68.375
  N      237.524     -28.948      68.649
  N      235.631     -26.631      69.469
  C      234.468     -26.015      69.549
  N      233.470     -26.735      68.949
  O      231.285     -20.430      67.877
  O      228.871     -19.978      68.619
  H      232.095     -27.146      71.569
  H      231.202     -19.509      67.568
  H      233.873     -30.670      66.871
  H      234.291     -25.065      70.032
  H      231.525     -27.315      68.586
  H      232.162     -25.058      70.595
  H      229.740     -24.522      70.348
  H      229.898     -24.742      67.565
  H      231.815     -23.021      69.225
  H      231.473     -22.819      67.484
  H      238.031     -29.763      68.340
  H      237.961     -28.203      69.171
  P      227.727     -26.106      69.761
  C      226.605     -25.269      67.550
  O      226.842     -26.346      68.445
  O      227.626     -24.517      69.943
  O      227.273     -26.810      70.996
  H      226.912     -24.306      70.574
  H      226.001     -25.609      66.735
  H      227.539     -24.905      67.174
  H      226.097     -24.481      68.066

 6  7  8  9  10  11  12  13  14  15  25  28  32  33  34  35 0
 6-311+G(2d,p)
 ****
 36  37  40 0
 6-311+G(2d,p)
 ****
 1  2  3  4  5  16  17  18  19  20  21  22  23  24 0
 3-21G
 ****
 26  27  29  30  31  38  39 41  42  43  44  45  46  47  48 0
 3-21G
 ****


