%nproc=1
%NoSave
%Mem=1900MB
#P OB98/GEN NMR

erre ene a

0 1
  C      101.687      12.722    -173.533
  O      101.858      11.321    -173.607
  H      101.071      12.956    -172.660
  H      101.181      13.091    -174.429
  H      102.656      13.215    -173.425
  P      102.652      10.768    -174.889
  C      101.759       9.968    -177.207
  O      101.533      10.746    -176.042
  C      100.455       9.316    -177.652
  O      100.166       8.154    -176.845
  C       99.232      10.217    -177.521
  O       99.126      11.162    -178.573
  C       98.123       9.182    -177.578
  O       97.942       8.743    -178.936
  C       98.722       8.055    -176.705
  N       98.334       8.151    -175.297
  C       97.007       7.832    -174.988
  O       96.220       7.500    -175.873
  N       96.590       7.928    -173.682
  C       97.426       8.299    -172.762
  N       96.956       8.390    -171.489
  C       98.836       8.628    -173.041
  C       99.217       8.535    -174.312
  O      102.850       9.212    -174.568
  O      103.909      11.488    -175.243
  H       97.145       8.183    -178.948
  H      103.222       8.752    -175.358
  H       99.492       8.943    -172.242
  H      100.240       8.764    -174.593
  H       98.425       7.069    -177.082
  H       97.162       9.565    -177.231
  H       99.199      10.712    -176.545
  H      100.586       8.970    -178.687
  H       95.971       8.219    -171.338
  H      102.504       9.202    -176.971
  H       97.477       8.840    -170.746
  H      102.142      10.602    -178.013
  P       98.486      12.593    -178.226
  C       96.112      13.602    -178.527
  O       96.894      12.432    -178.329
  O       98.849      13.472    -179.512
  O       98.985      13.218    -176.961
  H       99.085      14.385    -179.261
  H       95.077      13.335    -178.575
  H       96.401      14.074    -179.443
  H       96.269      14.278    -177.712

 6  7  8  9  10  11  12  13  14  15  16  26  30  31  32  33  35 0
 6-311+G(2d,p)
 ****
 37  38 0
 6-311+G(2d,p)
 ****
 1  2  3  4  5  17  18  19  20  21  22  23  24  25 0
 3-21G
 ****
 27  28  29  34  36  39  40  41  42  43  44  45  46 0
 3-21G
 ****


