%nproc=1
%NoSave
%Mem=1900MB
#P OB98/GEN NMR

erre ene a

0 1
  C       -0.361    -152.280    -487.873
  O       -1.473    -151.513    -488.349
  P       -1.983    -150.174    -487.634
  C       -3.401    -151.477    -485.919
  O       -2.387    -150.496    -486.116
  C       -3.931    -151.459    -484.483
  O       -2.945    -151.987    -483.570
  C       -4.275    -150.075    -483.943
  O       -5.505    -149.607    -484.480
  C       -4.298    -150.336    -482.444
  O       -5.555    -150.898    -482.032
  C       -3.155    -151.365    -482.284
  N       -1.926    -150.769    -481.772
  C       -1.970    -150.282    -480.461
  O       -3.014    -150.325    -479.815
  N       -0.819    -149.748    -479.922
  C        0.241    -149.635    -480.653
  N        1.348    -149.101    -480.067
  C        0.301    -150.050    -482.075
  C       -0.813    -150.601    -482.556
  O       -3.033    -149.434    -488.392
  O       -0.668    -149.265    -487.481
  H       -6.232    -150.220    -482.230
  H       -0.921    -148.317    -487.530
  H        1.195    -149.910    -482.657
  H       -0.856    -150.941    -483.593
  H       -3.463    -152.174    -481.607
  H       -4.145    -149.423    -481.849
  H       -3.466    -149.372    -484.185
  H       -4.810    -152.113    -484.443
  H        1.282    -148.836    -479.095
  H       -2.968    -152.463    -486.128
  H        2.229    -148.971    -480.547
  H       -4.214    -151.289    -486.630
  P       -5.504    -148.373    -485.507
  C       -3.560    -147.047    -484.480
  O       -4.004    -147.808    -485.590
  O       -6.565    -147.350    -485.273
  O       -5.685    -149.071    -486.942
  H       -6.179    -148.467    -487.527
  H       -2.467    -147.073    -484.458
  H       -3.950    -147.459    -483.538
  H       -3.904    -146.015    -484.590
  H       -0.212    -153.126    -488.511
  H       -0.560    -152.616    -486.877
  H        0.519    -151.672    -487.875

 3  4  5  6  7  8  9  10  11  12  13  23  27  28  29  30  32 0
 6-311+G(2d,p)
 ****
 34  35 0
 6-311+G(2d,p)
 ****
 1  2  14  15  16  17  18  19  20  21  22  24  25  26 0
 3-21G
 ****
 31  33  36  37  38  39  40  41  42  43  44  45  46 0
 3-21G
 ****


