%nproc=1
%NoSave
%Mem=1900MB
#P OB98/GEN NMR

erre ene a

0 1
  C       -7.191     109.070      26.439
  O       -6.171     110.025      26.654
  H       -7.006     108.569      25.484
  H       -8.173     109.549      26.398
  H       -7.176     108.319      27.234
  P       -6.355     111.069      27.861
  C       -4.909     113.041      28.696
  O       -4.920     111.769      28.047
  C       -3.605     113.247      29.473
  O       -3.474     112.243      30.500
  C       -2.355     113.108      28.618
  O       -2.176     114.151      27.682
  C       -1.277     112.839      29.658
  O       -0.724     114.023      30.224
  C       -2.063     112.059      30.741
  N       -1.697     110.649      30.774
  C       -1.085     110.210      31.945
  O       -0.836     110.948      32.900
  N       -0.726     108.891      31.972
  C       -0.868     108.002      30.946
  O       -0.486     106.839      31.017
  C       -1.496     108.530      29.722
  C       -1.877     109.810      29.693
  O       -6.922     110.503      29.130
  O       -7.245     112.234      27.223
  H       -0.202     113.753      31.004
  H       -7.648     112.799      27.925
  H       -0.290     108.552      32.816
  H       -1.624     107.854      28.888
  H       -2.343     110.224      28.802
  H       -1.861     112.483      31.733
  H       -0.444     112.271      29.234
  H       -2.447     112.188      28.028
  H       -3.645     114.229      29.959
  H       -5.751     113.063      29.395
  H       -5.042     113.834      27.955
  P       -1.218     114.033      26.408
  C       -1.219     114.994      23.992
  O       -1.989     114.655      25.140
  O       -0.483     112.742      26.236
  O       -0.121     115.173      26.730
  H        0.735     114.861      26.380
  H       -1.863     115.393      23.236
  H       -0.731     114.118      23.619
  H       -0.485     115.726      24.258

 6  7  8  9  10  11  12  13  14  15  16  26  31  32  33  34  35 0
 6-311+G(2d,p)
 ****
 36  37 0
 6-311+G(2d,p)
 ****
 1  2  3  4  5  17  18  19  20  21  22  23  24  25 0
 3-21G
 ****
 27  28  29  30  38  39  40  41  42  43  44  45 0
 3-21G
 ****


