%nproc=1
%NoSave
%Mem=1900MB
#P OB98/GEN NMR

erre ene a

0 1
  C      163.457     283.792     435.893
  O      162.228     284.074     436.528
  H      164.091     284.679     435.945
  H      163.289     283.544     434.842
  H      163.973     282.966     436.391
  P      161.190     282.876     436.773
  C      161.962     282.753     439.231
  O      161.740     282.035     438.023
  C      161.405     281.963     440.414
  O      161.579     282.711     441.637
  C      159.912     281.671     440.316
  O      159.660     280.625     439.398
  C      159.595     281.337     441.768
  O      159.977     279.989     442.078
  C      160.495     282.352     442.518
  N      159.766     283.540     442.969
  C      158.848     283.349     444.000
  O      158.611     282.247     444.490
  N      158.197     284.474     444.429
  C      158.309     285.723     443.888
  O      157.658     286.690     444.278
  C      159.270     285.857     442.785
  C      159.944     284.778     442.383
  O      160.845     282.057     435.572
  O      159.901     283.613     437.374
  H      160.918     279.898     441.828
  H      159.232     283.727     436.673
  H      157.519     284.354     445.163
  H      159.382     286.831     442.327
  H      160.656     284.854     441.565
  H      160.949     281.874     443.400
  H      158.534     281.424     441.998
  H      159.364     282.578     440.038
  H      161.979     281.032     440.504
  H      161.451     283.720     439.164
  H      163.035     282.923     439.351
  P      158.199     280.403     438.790
  C      158.731     280.774     436.314
  O      158.083     281.302     437.464
  O      157.072     280.575     439.757
  O      158.237     278.913     438.215
  H      157.725     278.313     438.800
  H      158.596     281.443     435.490
  H      158.309     279.821     436.073
  H      159.776     280.661     436.514

 6  7  8  9  10  11  12  13  14  15  16  26  31  32  33  34  35 0
 6-311+G(2d,p)
 ****
 36  37 0
 6-311+G(2d,p)
 ****
 1  2  3  4  5  17  18  19  20  21  22  23  24  25 0
 3-21G
 ****
 27  28  29  30  38  39  40  41  42  43  44  45 0
 3-21G
 ****


