%nproc=1
%NoSave
%Mem=1900MB
#P OB98/GEN NMR

erre ene a

0 1
  C     -891.700     302.926    -899.133
  O     -892.470     304.137    -899.093
  P     -892.240     305.162    -897.873
  C     -894.230     304.196    -896.433
  O     -892.890     304.559    -896.523
  C     -894.490     303.520    -895.073
  O     -894.200     304.451    -894.013
  C     -895.910     303.002    -894.883
  O     -896.090     301.706    -895.383
  C     -896.080     303.077    -893.393
  O     -895.410     301.957    -892.743
  C     -895.310     304.415    -893.033
  N     -896.060     305.668    -893.163
  C     -897.190     305.906    -892.323
  O     -897.550     305.105    -891.453
  N     -897.790     307.113    -892.473
  C     -897.370     308.164    -893.253
  O     -897.960     309.239    -893.273
  C     -896.130     307.914    -893.983
  C     -895.540     306.723    -893.923
  O     -893.190     306.408    -898.243
  O     -890.810     305.590    -897.703
  H     -894.490     301.943    -893.033
  H     -892.660     307.201    -898.413
  H     -898.620     307.283    -891.923
  H     -895.730     308.755    -894.583
  H     -894.630     306.522    -894.493
  H     -894.890     304.355    -892.043
  H     -897.110     303.017    -893.073
  H     -896.620     303.719    -895.343
  H     -893.770     302.669    -894.983
  H     -894.510     303.511    -897.243
  H     -894.880     305.072    -896.533
  P     -896.680     301.505    -896.903
  C     -898.950     300.822    -895.913
  O     -898.270     301.749    -896.723
  O     -896.290     300.261    -897.623
  O     -896.240     302.836    -897.663
  H     -895.400     302.666    -898.193
  H     -900.000     301.187    -895.743
  H     -898.480     300.726    -894.913
  H     -899.000     299.822    -896.403
  H     -891.970     302.360    -900.000
  H     -891.897     302.349    -898.254
  H     -890.658     303.167    -899.175

 3  4  5  6  7  8  9  10  11  12  13  23  28  29  30  31  32 0
 6-311+G(2d,p)
 ****
 33  34 0
 6-311+G(2d,p)
 ****
 1  2  14  15  16  17  18  19  20  21  22  24  25  26  27 0
 3-21G
 ****
 35  36  37  38  39  40  41  42  43  44  45 0
 3-21G
 ****


