%nproc=1
%NoSave
%Mem=1900MB
#P OB98/GEN NMR

erre ene a

0 1
  C      358.556     113.777    -172.737
  O      358.626     114.608    -173.877
  H      359.175     114.215    -171.948
  H      358.942     112.782    -172.972
  H      357.529     113.702    -172.372
  P      357.677     114.285    -175.128
  C      359.597     113.341    -176.566
  O      358.354     113.073    -175.927
  C      360.264     112.035    -176.983
  O      360.558     111.233    -175.817
  C      359.391     111.156    -177.867
  O      359.326     111.644    -179.195
  C      360.080     109.811    -177.708
  O      361.218     109.708    -178.574
  C      360.523     109.847    -176.227
  N      359.637     109.065    -175.370
  C      360.047     107.764    -175.084
  O      361.095     107.276    -175.502
  N      359.174     107.015    -174.340
  C      357.908     107.387    -173.987
  O      357.075     106.600    -173.545
  C      357.552     108.785    -174.261
  C      358.414     109.548    -174.940
  O      357.286     115.459    -175.964
  O      356.394     113.596    -174.455
  H      355.669     114.249    -174.407
  H      361.712     108.918    -178.274
  H      359.446     106.060    -174.164
  H      356.585     109.141    -173.937
  H      358.160     110.575    -175.185
  H      361.542     109.462    -176.123
  H      359.408     108.981    -177.941
  H      358.381     111.086    -177.445
  H      361.212     112.270    -177.484
  H      360.246     113.874    -175.860
  H      359.419     113.982    -177.438
  P      357.980     111.505    -180.049
  C      358.922     109.487    -181.333
  O      357.852     109.978    -180.533
  O      357.798     112.518    -181.124
  O      356.814     111.622    -178.950
  H      356.164     112.284    -179.258
  H      358.732     108.467    -181.596
  H      359.837     109.549    -180.782
  H      359.001     110.076    -182.223

 6  7  8  9  10  11  12  13  14  15  16  27  31  32  33  34  35 0
 6-311+G(2d,p)
 ****
 36  37 0
 6-311+G(2d,p)
 ****
 1  2  3  4  5  17  18  19  20  21  22  23  24  25 0
 3-21G
 ****
 26  28  29  30  38  39  40  41  42  43  44  45 0
 3-21G
 ****


