%nproc=1
%NoSave
%Mem=1900MB
#P OB98/GEN NMR

erre ene a

0 1
  C      -38.757     429.026     -21.725
  O      -38.555     429.883     -22.839
  P      -39.623     431.013     -23.211
  C      -41.806     429.565     -23.398
  O      -40.808     430.335     -24.032
  C      -43.098     429.652     -24.217
  O      -43.612     431.002     -24.194
  C      -42.869     429.260     -25.673
  O      -43.177     427.888     -25.881
  C      -43.794     430.202     -26.421
  O      -45.143     429.701     -26.408
  C      -43.691     431.483     -25.564
  N      -42.546     432.389     -25.795
  C      -42.568     433.674     -25.256
  O      -43.480     434.108     -24.561
  N      -41.494     434.468     -25.573
  C      -40.414     434.088     -26.319
  O      -39.592     434.864     -26.792
  C      -40.326     432.656     -26.620
  C      -41.386     431.890     -26.371
  O      -38.856     431.884     -24.310
  O      -40.097     431.848     -22.065
  H      -45.671     430.279     -26.991
  H      -38.472     432.685     -23.908
  H      -41.568     435.444     -25.306
  H      -39.422     432.284     -27.086
  H      -41.359     430.835     -26.622
  H      -44.602     432.088     -25.651
  H      -43.511     430.282     -27.469
  H      -41.835     429.477     -25.968
  H      -43.855     428.999     -23.761
  H      -41.972     429.932     -22.380
  H      -41.480     428.522     -23.320
  P      -42.252     427.008     -26.843
  C      -43.193     427.878     -29.060
  O      -43.118     426.784     -28.171
  O      -41.679     425.772     -26.233
  O      -41.105     428.036     -27.290
  H      -40.306     427.904     -26.739
  H      -43.656     427.543     -29.993
  H      -42.194     428.267     -29.279
  H      -43.812     428.668     -28.626
  H      -37.936     428.344     -21.646
  H      -39.665     428.476     -21.858
  H      -38.822     429.611     -20.832

 3  4  5  6  7  8  9  10  11  12  13  23  28  29  30  31  32 0
 6-311+G(2d,p)
 ****
 33  34 0
 6-311+G(2d,p)
 ****
 1  2  14  15  16  17  18  19  20  21  22  24  25  26  27 0
 3-21G
 ****
 35  36  37  38  39  40  41  42  43  44  45 0
 3-21G
 ****


