%nproc=1
%NoSave
%Mem=1900MB
#P OB98/GEN NMR

erre ene a

0 1
  C       74.792     172.401    -111.879
  O       74.342     171.933    -113.133
  H       74.025     173.050    -111.452
  H       75.708     172.982    -112.008
  H       74.971     171.573    -111.189
  P       75.137     170.738    -113.845
  C       72.997     169.397    -113.329
  O       74.415     169.378    -113.392
  C       72.445     167.993    -113.062
  O       72.500     167.224    -114.298
  C       73.226     167.208    -111.998
  O       72.297     166.336    -111.341
  C       74.188     166.406    -112.852
  O       74.737     165.323    -112.135
  C       73.288     166.047    -114.036
  N       74.051     165.623    -115.209
  C       73.707     164.397    -115.763
  O       72.834     163.666    -115.295
  N       74.431     164.005    -116.855
  C       75.485     164.681    -117.395
  O       76.120     164.268    -118.356
  C       75.833     165.953    -116.741
  C       75.109     166.361    -115.696
  O       76.618     170.748    -113.664
  O       74.724     170.853    -115.387
  H       75.467     165.633    -111.558
  H       75.452     170.535    -115.954
  H       74.187     163.122    -117.275
  H       76.671     166.509    -117.139
  H       75.341     167.294    -115.193
  H       72.601     165.233    -113.769
  H       75.023     167.033    -113.183
  H       73.728     167.850    -111.271
  H       71.386     168.079    -112.791
  H       72.621     169.766    -114.289
  H       72.675     170.079    -112.536
  P       72.388     166.020    -109.771
  C       70.087     166.918    -109.040
  O       71.499     167.095    -108.977
  O       73.782     165.877    -109.253
  O       71.573     164.654    -109.584
  H       71.922     164.166    -108.815
  H       69.605     167.690    -108.477
  H       69.829     165.964    -108.631
  H       69.766     166.968    -110.060

 6  7  8  9  10  11  12  13  14  15  16  26  31  32  33  34  35 0
 6-311+G(2d,p)
 ****
 36  37 0
 6-311+G(2d,p)
 ****
 1  2  3  4  5  17  18  19  20  21  22  23  24  25 0
 3-21G
 ****
 27  28  29  30  38  39  40  41  42  43  44  45 0
 3-21G
 ****


