%nproc=1
%NoSave
%Mem=1900MB
#P OB98/GEN NMR

erre ene a

0 1
  C      203.902    -129.558      16.044
  O      203.691    -128.170      16.220
  H      204.973    -129.762      16.104
  H      203.535    -129.872      15.068
  H      203.390    -130.124      16.830
  P      202.161    -127.674      16.208
  C      200.742    -126.273      14.519
  O      201.920    -127.041      14.751
  C      200.855    -125.509      13.199
  O      201.844    -124.448      13.361
  C      201.333    -126.378      12.018
  O      200.768    -125.850      10.804
  C      202.832    -126.125      12.026
  O      203.405    -126.524      10.800
  C      202.835    -124.634      12.326
  N      206.831    -121.735      11.020
  C      205.639    -121.960      10.417
  N      204.621    -122.742      10.834
  C      204.917    -123.301      12.019
  C      206.081    -123.162      12.757
  C      207.079    -122.337      12.201
  N      208.295    -122.123      12.809
  N      206.013    -123.917      13.918
  C      204.831    -124.486      13.883
  N      204.124    -124.143      12.762
  O      202.184    -126.395      17.176
  O      201.150    -128.679      16.631
  H      204.371    -126.402      10.805
  H      201.957    -126.667      18.086
  H      205.491    -121.446       9.466
  H      204.428    -125.164      14.633
  H      202.528    -124.022      11.461
  H      203.322    -126.693      12.819
  H      201.062    -127.434      12.124
  H      199.896    -125.021      12.977
  H      200.616    -125.573      15.354
  H      199.876    -126.948      14.481
  H      208.968    -121.539      12.331
  H      208.522    -122.598      13.673
  P      200.081    -126.861       9.755
  C      200.820    -128.391       7.764
  O      201.208    -127.620       8.891
  O      199.453    -125.853       8.677
  O      199.013    -127.748      10.319
  H      198.540    -126.126       8.467
  H      201.688    -128.822       7.311
  H      200.323    -127.762       7.056
  H      200.157    -129.170       8.076

 6  7  8  9  10  11  12  13  14  15  25  28  32  33  34  35 0
 6-311+G(2d,p)
 ****
 36  37  40 0
 6-311+G(2d,p)
 ****
 1  2  3  4  5  16  17  18  19  20  21  22  23  24 0
 3-21G
 ****
 26  27  29  30  31  38  39 41  42  43  44  45  46  47  48 0
 3-21G
 ****


