%nproc=1
%NoSave
%Mem=1900MB
#P OB98/GEN NMR

erre ene a

0 1
  C     1134.450    -166.448     895.397
  O     1135.865    -166.343     895.316
  H     1134.118    -167.408     895.032
  H     1134.136    -166.323     896.435
  H     1133.994    -165.648     894.793
  P     1136.531    -166.528     893.881
  C     1137.167    -169.037     894.100
  O     1137.635    -167.688     894.005
  C     1138.341    -170.014     893.983
  O     1138.901    -169.880     892.636
  C     1139.486    -169.739     894.985
  O     1139.731    -170.932     895.760
  C     1140.721    -169.507     894.114
  O     1141.912    -170.119     894.631
  C     1140.307    -170.065     892.751
  N     1144.894    -169.413     890.637
  C     1144.425    -170.381     891.433
  N     1143.172    -170.568     891.884
  C     1142.337    -169.602     891.393
  C     1142.696    -168.570     890.523
  C     1144.025    -168.468     890.153
  N     1144.535    -167.445     889.388
  N     1141.572    -167.782     890.243
  C     1140.593    -168.349     890.951
  N     1141.027    -169.417     891.666
  O     1137.409    -165.196     893.698
  O     1135.561    -166.713     892.750
  H     1142.147    -169.598     895.429
  H     1137.233    -164.810     892.826
  H     1145.161    -171.111     891.782
  H     1139.575    -167.970     891.017
  H     1140.513    -171.163     892.694
  H     1140.885    -168.408     894.026
  H     1139.309    -168.895     895.650
  H     1137.972    -171.025     894.079
  H     1136.461    -169.218     893.284
  H     1145.531    -167.400     889.273
  H     1143.919    -166.707     889.132
  H     1136.657    -169.167     895.064
  P     1139.155    -170.905     897.263
  C     1141.538    -171.694     897.976
  O     1140.133    -171.819     898.167
  O     1137.829    -171.828     897.173
  O     1138.862    -169.551     897.799
  H     1137.189    -171.561     897.841
  H     1142.049    -172.358     898.642
  H     1141.837    -170.687     898.178
  H     1141.784    -171.943     896.965

 6  7  8  9  10  11  12  13  14  15  25  28  32  33  34  35 0
 6-311+G(2d,p)
 ****
 36  39  40 0
 6-311+G(2d,p)
 ****
 1  2  3  4  5  16  17  18  19  20  21  22  23  24 0
 3-21G
 ****
 26  27  29  30  31  37  38  41  42  43  44  45  46  47  48 0
 3-21G
 ****


