%nproc=1
%NoSave
%Mem=1900MB
#P OB98/GEN NMR

erre ene a

0 1
  C      958.721    -787.059    -767.114
  O      959.954    -787.265    -766.424
  P      960.654    -788.709    -766.279
  C      963.087    -787.956    -766.736
  O      961.987    -788.732    -767.197
  C      964.417    -788.497    -767.294
  O      964.615    -789.882    -766.870
  C      964.511    -788.447    -768.832
  O      965.873    -788.090    -769.138
  C      964.251    -789.896    -769.208
  O      964.670    -790.254    -770.509
  C      964.983    -790.611    -768.062
  N      964.693    -792.036    -767.906
  C      965.766    -792.897    -767.621
  O      966.918    -792.484    -767.565
  N      965.502    -794.234    -767.424
  C      964.288    -794.681    -767.529
  N      964.091    -796.002    -767.315
  C      963.127    -793.804    -767.829
  C      963.404    -792.532    -768.009
  O      959.728    -789.852    -766.535
  O      961.222    -788.770    -764.782
  H      961.143    -789.680    -764.446
  H      965.632    -790.230    -770.537
  H      962.132    -794.224    -767.895
  H      962.597    -791.822    -768.209
  H      966.074    -790.485    -768.206
  H      963.169    -790.079    -769.157
  H      963.854    -787.745    -769.296
  H      965.223    -787.913    -766.842
  H      964.907    -796.567    -767.089
  H      963.111    -788.015    -765.644
  H      963.186    -796.456    -767.357
  H      962.932    -786.918    -767.036
  P      966.293    -786.547    -769.242
  C      968.158    -786.799    -767.439
  O      966.967    -786.136    -767.837
  O      964.853    -785.826    -769.108
  O      966.955    -786.104    -770.488
  H      964.890    -784.945    -769.539
  H      968.867    -786.030    -767.059
  H      968.636    -787.349    -768.250
  H      967.905    -787.484    -766.625
  H      958.460    -786.022    -767.076
  H      957.951    -787.638    -766.649
  H      958.828    -787.362    -768.135

 3  4  5  6  7  8  9  10  11  12  13  24  27  28  29  30  32 0
 6-311+G(2d,p)
 ****
 34  35 0
 6-311+G(2d,p)
 ****
 1  2  14  15  16  17  18  19  20  21  22  23  25  26 0
 3-21G
 ****
 31  33  36  37  38  39  40  41  42  43  44  45  46 0
 3-21G
 ****


