%nproc=1
%NoSave
%Mem=1900MB
#P OB98/GEN NMR

erre ene a

0 1
  C     -448.899      40.933     450.849
  O     -447.932      39.929     450.490
  P     -448.204      38.354     450.625
  C     -447.174      38.181     453.001
  O     -447.119      37.749     451.648
  C     -447.248      36.985     453.952
  O     -448.473      36.254     453.759
  C     -446.154      35.927     453.754
  O     -444.891      36.364     454.232
  C     -446.742      34.747     454.523
  O     -446.446      34.839     455.930
  C     -448.253      34.928     454.295
  N     -448.823      33.910     453.414
  C     -449.666      32.981     454.008
  O     -449.853      32.982     455.225
  N     -450.288      32.045     453.205
  C     -449.990      31.983     451.940
  N     -450.643      31.054     451.187
  C     -448.988      32.861     451.304
  C     -448.451      33.794     452.091
  O     -448.275      37.636     449.314
  O     -449.588      38.231     451.426
  H     -450.022      37.383     451.202
  H     -445.473      34.903     456.012
  H     -448.738      32.753     450.253
  H     -447.717      34.494     451.696
  H     -448.791      34.908     455.248
  H     -446.343      33.792     454.167
  H     -446.087      35.676     452.690
  H     -447.220      37.363     454.983
  H     -451.327      30.472     451.662
  H     -448.081      38.789     453.132
  H     -450.506      30.940     450.203
  H     -446.301      38.803     453.214
  P     -443.818      36.821     453.124
  C     -443.119      34.352     452.721
  O     -442.704      35.666     453.026
  O     -443.045      38.038     453.832
  O     -444.411      37.240     451.816
  H     -442.857      38.733     453.169
  H     -442.286      33.832     452.217
  H     -443.987      34.347     452.057
  H     -443.358      33.827     453.641
  H     -448.488      41.904     450.671
  H     -449.147      40.835     451.885
  H     -449.782      40.806     450.258

 3  4  5  6  7  8  9  10  11  12  13  24  27  28  29  30  32 0
 6-311+G(2d,p)
 ****
 34  35 0
 6-311+G(2d,p)
 ****
 1  2  14  15  16  17  18  19  20  21  22  23  25  26 0
 3-21G
 ****
 31  33  36  37  38  39  40  41  42  43  44  45  46 0
 3-21G
 ****


