%nproc=1
%NoSave
%Mem=1900MB
#P OB98/GEN NMR

erre ene a

0 1
  C     -837.648     -15.727      26.587
  O     -838.833     -16.496      26.721
  P     -838.863     -17.625      27.860
  C     -841.458     -17.572      27.901
  O     -840.278     -18.369      27.738
  C     -842.709     -18.435      27.792
  O     -842.881     -18.850      26.411
  C     -842.693     -19.693      28.662
  O     -843.984     -19.854      29.292
  C     -842.544     -20.827      27.651
  O     -843.067     -22.050      28.135
  C     -843.295     -20.233      26.460
  N     -845.368     -21.462      22.016
  C     -845.804     -20.558      22.971
  N     -846.981     -19.942      22.732
  N     -845.138     -20.297      24.060
  C     -843.964     -20.959      24.157
  C     -843.426     -21.865      23.269
  C     -844.197     -22.195      22.094
  O     -843.915     -23.059      21.262
  N     -842.188     -22.311      23.699
  C     -841.987     -21.685      24.843
  N     -843.056     -20.886      25.186
  O     -839.004     -16.767      29.211
  O     -837.666     -18.516      27.917
  H     -842.459     -22.373      28.827
  H     -838.271     -16.995      29.828
  H     -845.927     -21.643      21.195
  H     -841.117     -21.788      25.472
  H     -844.376     -20.251      26.639
  H     -841.484     -20.961      27.429
  H     -847.537     -20.079      21.895
  H     -841.906     -19.707      29.424
  H     -847.311     -19.262      23.408
  H     -843.582     -17.804      28.038
  H     -841.469     -16.801      27.128
  H     -841.410     -17.085      28.888
  P     -843.956     -20.201      30.866
  C     -846.260     -19.065      31.272
  O     -845.485     -20.245      31.326
  O     -843.388     -18.844      31.531
  O     -843.115     -21.395      31.214
  H     -842.975     -19.041      32.392
  H     -845.733     -18.239      30.762
  H     -846.488     -18.739      32.296
  H     -847.197     -19.269      30.757
  H     -837.770     -15.019      25.795
  H     -836.826     -16.374      26.363
  H     -837.454     -15.208      27.502

 3  4  5  6  7  8  9  10  11  12  23  26  30  31  33  0
 6-311+G(2d,p)
 ****
 35  36  37  38 0
 6-311+G(2d,p)
 ****
 1  2  13  14  15  16  17  18  19  20  21  22  24  25  27  28  29 0
 3-21G
 ****
 32  34  39  40  41  42  43  44  45  46  47  48  49 0
 3-21G
 ****


