%nproc=1
%NoSave
%Mem=1900MB
#P OB98/GEN NMR

erre ene a

0 1
  C      867.706    -393.625     586.172
  O      868.072    -392.326     585.765
  H      867.198    -393.557     587.140
  H      868.598    -394.244     586.286
  H      867.027    -394.092     585.456
  P      868.535    -392.097     584.248
  C      867.058    -389.987     584.036
  O      867.370    -391.271     583.519
  C      866.344    -389.130     582.985
  O      867.297    -388.766     581.947
  C      865.212    -389.901     582.296
  O      864.182    -389.038     581.830
  C      865.912    -390.536     581.106
  O      865.021    -390.873     580.044
  C      866.914    -389.443     580.743
  N      870.015    -389.116     576.697
  C      868.787    -388.533     576.898
  N      868.321    -387.744     575.897
  N      868.072    -388.711     577.979
  C      868.622    -389.569     578.864
  C      869.826    -390.239     578.765
  C      870.633    -390.005     577.581
  O      871.711    -390.520     577.337
  N      870.045    -391.043     579.851
  C      868.985    -390.865     580.616
  N      868.104    -389.959     580.066
  O      868.401    -393.550     583.587
  O      869.916    -391.537     584.070
  H      864.611    -390.044     579.724
  H      868.964    -393.617     582.797
  H      870.545    -388.919     575.862
  H      868.812    -391.346     581.571
  H      866.464    -388.703     580.063
  H      866.391    -391.459     581.435
  H      868.752    -387.737     574.988
  H      864.777    -390.673     582.936
  H      867.311    -387.561     575.898
  H      866.000    -388.194     583.434
  H      868.005    -389.529     584.339
  H      866.446    -390.078     584.940
  P      862.960    -388.693     582.819
  C      863.801    -386.236     583.330
  O      863.378    -387.505     583.797
  O      862.888    -389.967     583.788
  O      861.660    -388.434     582.128
  H      862.042    -390.443     583.665
  H      864.028    -385.606     584.165
  H      863.020    -385.791     582.749
  H      864.675    -386.352     582.723

 6  7  8  9  10  11  12  13  14  15  26  29  33  34 0
 6-311+G(2d,p)
 ****
 36  38  39  40  41 0
 6-311+G(2d,p)
 ****
 1  2  3  4  5  16  17  18  19  20  21  22  23  24  25 0
 3-21G
 ****
 27  28  30  31  32  35  37  42  43  44  45  46  47 0
 3-21G
 ****
 48  49 0
 3-21G
 ****


