%nproc=1
%NoSave
%Mem=1900MB
#P OB98/GEN NMR

erre ene a

0 1
  C       42.874      64.592     104.379
  O       44.039      65.321     104.727
  P       44.234      65.945     106.197
  C       44.220      64.919     108.572
  O       43.855      64.761     107.212
  C       43.131      64.349     109.485
  O       42.007      65.268     109.496
  C       42.601      62.974     109.055
  O       42.292      62.246     110.250
  C       41.334      63.321     108.299
  O       40.424      62.233     108.228
  C       40.834      64.523     109.108
  N       39.907      65.358     108.353
  C       38.558      65.001     108.360
  O       38.171      64.001     108.962
  N       37.665      65.794     107.679
  C       38.094      66.799     106.980
  N       37.166      67.585     106.370
  C       39.522      67.147     106.859
  C       40.359      66.406     107.581
  O       43.508      67.224     106.434
  O       45.817      66.045     106.377
  H       39.607      62.542     107.792
  H       46.195      66.877     105.998
  H       39.834      67.978     106.240
  H       41.423      66.602     107.572
  H       40.358      64.184     110.034
  H       41.590      63.613     107.274
  H       43.327      62.406     108.465
  H       43.527      64.305     110.507
  H       36.195      67.420     106.619
  H       44.330      65.988     108.779
  H       37.386      68.538     106.098
  H       45.183      64.430     108.756
  P       42.407      60.643     110.216
  C       44.353      58.938     110.026
  O       43.913      60.263     109.823
  O       41.610      60.290     108.867
  O       41.802      59.908     111.369
  H       41.262      59.380     108.935
  H       45.393      58.860     109.697
  H       43.749      58.238     109.437
  H       44.301      58.673     111.086
  H       42.947      64.268     103.362
  H       42.014      65.218     104.493
  H       42.782      63.740     105.019

 3  4  5  6  7  8  9  10  11  12  13  23  27  28  29  30  32 0
 6-311+G(2d,p)
 ****
 34  35 0
 6-311+G(2d,p)
 ****
 1  2  14  15  16  17  18  19  20  21  22  24  25  26 0
 3-21G
 ****
 31  33  36  37  38  39  40  41  42  43  44  45  46 0
 3-21G
 ****


