%nproc=1
%NoSave
%Mem=1900MB
#P OB98/GEN NMR

erre ene a

0 1
  C     -891.190    -821.471    -271.248
  O     -892.410    -821.300    -271.923
  P     -893.480    -822.491    -271.995
  C     -895.500    -821.743    -270.597
  O     -894.300    -822.504    -270.615
  C     -896.690    -822.608    -270.174
  O     -896.900    -823.643    -271.181
  C     -896.530    -823.321    -268.829
  O     -897.830    -823.382    -268.237
  C     -896.100    -824.723    -269.213
  O     -896.330    -825.688    -268.201
  C     -896.920    -824.920    -270.498
  N     -897.260    -829.841    -271.805
  C     -897.910    -829.110    -270.864
  N     -897.740    -827.807    -270.564
  C     -896.800    -827.256    -271.341
  C     -896.040    -827.879    -272.326
  C     -896.310    -829.230    -272.567
  N     -895.680    -829.982    -273.534
  N     -895.130    -826.979    -272.861
  C     -895.350    -825.852    -272.240
  N     -896.380    -825.947    -271.346
  O     -892.930    -823.810    -272.409
  O     -894.580    -821.970    -273.044
  H     -896.170    -826.576    -268.587
  H     -894.470    -822.443    -273.897
  H     -898.650    -829.646    -270.293
  H     -894.790    -824.942    -272.359
  H     -897.970    -825.163    -270.266
  H     -895.020    -824.720    -269.447
  H     -895.830    -822.830    -268.153
  H     -897.580    -821.976    -270.174
  H     -895.660    -821.360    -271.605
  H     -896.050    -830.909    -273.710
  H     -895.170    -829.502    -274.277
  H     -895.380    -820.907    -269.910
  P     -898.030    -823.028    -266.677
  C     -899.060    -820.704    -267.005
  O     -897.920    -821.450    -266.554
  O     -897.160    -823.805    -265.746
  O     -899.590    -823.325    -266.418
  H     -899.740    -823.411    -265.470
  H     -899.030    -820.615    -268.096
  H     -899.030    -819.718    -266.564
  H     -900.000    -821.189    -266.706
  H     -890.618    -820.569    -271.312
  H     -890.643    -822.273    -271.697
  H     -891.380    -821.701    -270.220

 3  4  5  6  7  8  9  10  11  12  22  25  29  30  31  32 0
 6-311+G(2d,p)
 ****
 33  36  37 0
 6-311+G(2d,p)
 ****
 1  2  13  14  15  16  17  18  19  20  21  23  24  26 0
 3-21G
 ****
 27  28  34  35  38  39  40  41  42  43  44  45  46  47  48 0
 3-21G
 ****


