%nproc=1
%NoSave
%Mem=1900MB
#P OB98/GEN NMR

erre ene a

0 1
  C      -56.234      22.851      52.259
  O      -55.603      21.713      52.804
  H      -56.762      22.556      51.350
  H      -55.482      23.603      52.000
  H      -56.955      23.278      52.959
  P      -55.031      21.787      54.297
  C      -55.330      19.228      54.454
  O      -54.460      20.332      54.657
  C      -54.756      17.959      55.094
  O      -53.585      17.542      54.345
  C      -54.297      18.214      56.533
  O      -54.364      17.038      57.335
  C      -52.839      18.607      56.355
  O      -52.056      18.403      57.531
  C      -52.429      17.724      55.179
  N      -47.392      18.373      54.749
  C      -48.123      17.906      55.823
  N      -47.417      17.564      56.927
  N      -49.426      17.805      55.824
  C      -50.004      18.249      54.681
  C      -49.388      18.754      53.560
  C      -47.942      18.828      53.558
  O      -47.246      19.256      52.642
  N      -50.305      19.111      52.602
  C      -51.471      18.828      53.145
  N      -51.340      18.279      54.397
  O      -56.351      21.873      55.202
  O      -54.098      22.926      54.576
  H      -51.163      18.750      57.350
  H      -56.142      22.264      56.069
  H      -46.389      18.402      54.790
  H      -52.433      18.984      52.671
  H      -52.111      16.734      55.530
  H      -52.798      19.674      56.122
  H      -46.446      17.812      57.033
  H      -54.859      19.007      57.020
  H      -47.942      17.524      57.804
  H      -55.482      17.142      55.026
  H      -55.436      19.100      53.374
  H      -56.321      19.447      54.853
  P      -55.617      16.850      58.315
  C      -56.069      14.255      58.064
  O      -55.663      15.349      58.855
  O      -56.879      16.944      57.340
  O      -55.689      17.854      59.423
  H      -57.418      17.729      57.555
  H      -56.016      13.357      58.643
  H      -55.424      14.170      57.215
  H      -57.075      14.408      57.734

 6  7  8  9  10  11  12  13  14  15  26  29  33  34 0
 6-311+G(2d,p)
 ****
 36  38  39  40  41 0
 6-311+G(2d,p)
 ****
 1  2  3  4  5  16  17  18  19  20  21  22  23  24  25 0
 3-21G
 ****
 27  28  30  31  32  35  37  42  43  44  45  46  47 0
 3-21G
 ****
 48  49 0
 3-21G
 ****


