%nproc=1
%NoSave
%Mem=1900MB
#P OB98/GEN NMR

erre ene a

0 1
  C     1134.441      96.225    -225.583
  O     1134.966      95.786    -224.346
  H     1133.400      95.906    -225.691
  H     1134.485      97.321    -225.615
  H     1135.043      95.822    -226.405
  P     1134.899      94.213    -224.058
  C     1135.636      94.563    -221.597
  O     1134.645      94.052    -222.478
  C     1134.968      95.309    -220.439
  O     1134.539      96.622    -220.868
  C     1133.717      94.633    -219.881
  O     1134.031      93.552    -219.014
  C     1133.079      95.793    -219.131
  O     1133.723      95.948    -217.842
  C     1133.415      96.990    -220.026
  N     1129.138      99.842    -220.358
  C     1130.024      99.657    -219.357
  N     1131.126      98.879    -219.328
  C     1131.303      98.259    -220.508
  C     1130.494      98.347    -221.631
  C     1129.357      99.183    -221.524
  N     1128.462      99.355    -222.553
  N     1130.988      97.592    -222.668
  C     1132.074      97.038    -222.178
  N     1132.312      97.405    -220.877
  O     1136.418      93.734    -224.239
  O     1133.967      93.440    -224.938
  H     1133.167      96.544    -217.317
  H     1136.420      92.837    -224.633
  H     1129.821     100.209    -218.439
  H     1132.740      96.381    -222.734
  H     1133.731      97.857    -219.438
  H     1132.014      95.652    -218.940
  H     1133.044      94.315    -220.693
  H     1135.721      95.436    -219.650
  H     1136.287      95.261    -222.138
  H     1127.783     100.109    -222.492
  H     1128.629      98.867    -223.433
  H     1136.232      93.734    -221.213
  P     1132.989      92.327    -218.951
  C     1134.082      91.883    -216.634
  O     1132.886      91.939    -217.393
  O     1133.832      91.105    -219.573
  O     1131.713      92.549    -219.676
  H     1133.225      90.440    -219.949
  H     1133.851      91.614    -215.624
  H     1134.558      92.841    -216.648
  H     1134.739      91.152    -217.057

 6  7  8  9  10  11  12  13  14  15  25  28  32  33  34  35 0
 6-311+G(2d,p)
 ****
 36  39  40 0
 6-311+G(2d,p)
 ****
 1  2  3  4  5  16  17  18  19  20  21  22  23  24 0
 3-21G
 ****
 26  27  29  30  31  37  38  41  42  43  44  45  46  47  48 0
 3-21G
 ****


