%nproc=1
%NoSave
%Mem=1900MB
#P OB98/GEN NMR

erre ene a

0 1
  C      151.033    -895.200     496.571
  O      151.326    -893.860     496.235
  H      150.704    -895.240     497.613
  H      151.923    -895.820     496.459
  H      150.229    -895.580     495.936
  P      151.668    -893.550     494.701
  C      154.034    -892.520     495.184
  O      153.268    -893.540     494.549
  C      155.515    -892.690     494.848
  O      156.020    -893.950     495.334
  C      155.804    -892.730     493.348
  O      155.649    -891.470     492.736
  C      157.235    -893.240     493.368
  O      158.161    -892.180     493.679
  C      157.178    -894.280     494.526
  N      157.130    -895.650     494.043
  C      158.381    -896.270     493.876
  O      159.419    -895.670     494.136
  N      158.404    -897.560     493.398
  C      157.300    -898.170     493.107
  N      157.392    -899.440     492.622
  C      155.973    -897.560     493.293
  C      155.957    -896.300     493.755
  O      151.285    -892.000     494.553
  O      150.996    -894.450     493.706
  H      159.051    -892.610     493.727
  H      151.717    -891.430     495.211
  H      155.060    -898.110     493.060
  H      155.019    -895.780     493.921
  H      158.057    -894.160     495.180
  H      157.533    -893.650     492.400
  H      155.174    -893.500     492.873
  H      156.069    -891.870     495.340
  H      158.322    -899.820     492.492
  H      153.880    -892.520     496.271
  H      156.593    -900.000     492.345
  H      153.666    -891.540     494.814
  P      155.580    -891.360     491.130
  C      157.536    -889.696     490.982
  O      157.071    -891.000     490.643
  O      154.507    -890.460     490.605
  O      155.432    -892.890     490.665
  H      156.163    -893.470     490.939
  H      158.531    -889.565     490.612
  H      157.533    -889.582     492.046
  H      156.893    -888.963     490.543

 6  7  8  9  10  11  12  13  14  15  16  26  30  31  32  33  35 0
 6-311+G(2d,p)
 ****
 37  38 0
 6-311+G(2d,p)
 ****
 1  2  3  4  5  17  18  19  20  21  22  23  24  25 0
 3-21G
 ****
 27  28  29  34  36  39  40  41  42  43  44  45  46 0
 3-21G
 ****


