%nproc=1
%NoSave
%Mem=1900MB
#P OB98/GEN NMR

erre ene a

0 1
  C       37.758     123.809     335.303
  O       38.530     124.285     334.195
  P       40.127     124.174     334.309
  C       40.225     126.792     334.379
  O       40.608     125.557     334.964
  C       40.797     127.954     335.189
  O       42.197     127.730     335.485
  C       40.744     129.296     334.474
  O       39.428     129.821     334.455
  C       41.744     130.099     335.295
  O       41.130     130.578     336.502
  C       42.808     129.034     335.634
  N       44.014     129.152     334.824
  C       45.184     129.439     335.520
  O       45.218     129.611     336.738
  N       46.320     129.544     334.763
  C       46.389     129.422     333.406
  O       47.439     129.516     332.781
  C       45.113     129.168     332.721
  C       44.000     129.047     333.449
  O       40.554     124.292     332.773
  O       40.577     122.933     335.000
  H       39.982     124.892     332.265
  H       40.251     130.924     336.246
  H       47.180     129.739     335.250
  H       45.128     129.091     331.641
  H       43.049     128.863     332.961
  H       43.099     129.113     336.689
  H       42.126     130.970     334.754
  H       41.112     129.185     333.446
  H       40.248     128.010     336.139
  H       39.134     126.872     334.358
  H       40.579     126.819     333.345
  P       38.628     129.730     333.063
  C       38.517     132.222     332.282
  O       39.134     130.959     332.169
  O       37.156     130.161     333.522
  O       38.704     128.387     332.417
  H       37.154     130.930     334.117
  H       39.195     132.980     331.882
  H       38.294     132.467     333.323
  H       37.593     132.233     331.698
  H       36.717     123.942     335.096
  H       38.020     124.359     336.183
  H       37.961     122.770     335.459

 3  4  5  6  7  8  9  10  11  12  13  24  28  29  30  31  32 0
 6-311+G(2d,p)
 ****
 33  34 0
 6-311+G(2d,p)
 ****
 1  2  14  15  16  17  18  19  20  21  22  23  25  26  27 0
 3-21G
 ****
 35  36  37  38  39  40  41  42  43  44  45 0
 3-21G
 ****


