%nproc=1
%NoSave
%Mem=1900MB
#P OB98/GEN NMR

erre ene a

0 1
  C     -117.962    -475.449    -244.842
  O     -116.760    -476.113    -245.247
  P     -116.624    -476.435    -246.814
  C     -117.555    -478.837    -247.045
  O     -117.800    -477.454    -247.209
  C     -118.698    -479.675    -247.644
  O     -118.963    -479.273    -249.021
  C     -118.412    -481.187    -247.656
  O     -119.670    -481.850    -247.424
  C     -117.946    -481.411    -249.084
  O     -117.955    -482.772    -249.473
  C     -118.900    -480.480    -249.821
  N     -118.481    -482.375    -254.543
  C     -118.908    -482.922    -253.383
  N     -118.985    -482.354    -252.161
  C     -118.564    -481.074    -252.214
  C     -118.101    -480.379    -253.314
  C     -118.067    -481.079    -254.531
  N     -117.611    -480.539    -255.712
  N     -117.739    -479.087    -252.961
  C     -117.913    -479.042    -251.650
  N     -118.490    -480.186    -251.174
  O     -115.295    -477.319    -246.904
  O     -116.547    -475.207    -247.662
  H     -118.867    -483.065    -249.654
  H     -114.536    -476.776    -247.179
  H     -119.231    -483.959    -253.448
  H     -117.654    -478.210    -251.011
  H     -119.922    -480.894    -249.873
  H     -116.907    -481.055    -249.187
  H     -117.690    -481.511    -246.897
  H     -119.606    -479.477    -247.062
  H     -117.452    -479.081    -245.980
  H     -117.611    -481.129    -256.532
  H     -117.275    -479.596    -255.741
  H     -116.597    -479.091    -247.512
  P     -120.068    -482.238    -245.921
  C     -119.501    -484.742    -245.956
  O     -119.085    -483.448    -245.537
  O     -121.445    -483.019    -246.174
  O     -120.182    -481.106    -244.956
  H     -121.343    -483.696    -246.873
  H     -118.699    -485.449    -245.704
  H     -119.655    -484.750    -247.041
  H     -120.411    -485.033    -245.431
  H     -117.941    -475.288    -243.784
  H     -118.807    -476.056    -245.094
  H     -118.036    -474.508    -245.345

 3  4  5  6  7  8  9  10  11  12  22  25  29  30  31  32 0
 6-311+G(2d,p)
 ****
 33  36  37 0
 6-311+G(2d,p)
 ****
 1  2  13  14  15  16  17  18  19  20  21  23  24  26 0
 3-21G
 ****
 27  28  34  35  38  39  40  41  42  43  44  45  46  47  48 0
 3-21G
 ****


