%nproc=1
%NoSave
%Mem=1900MB
#P OB98/GEN NMR

erre ene a

0 1
  C     -168.102     284.764    -139.763
  O     -168.878     283.632    -140.090
  H     -167.799     284.693    -138.716
  H     -168.697     285.674    -139.892
  H     -167.207     284.813    -140.389
  P     -169.305     283.445    -141.625
  C     -171.676     284.368    -141.114
  O     -170.905     283.302    -141.644
  C     -172.984     284.518    -141.895
  O     -172.678     284.972    -143.238
  C     -173.783     283.218    -142.010
  O     -175.178     283.526    -141.902
  C     -173.482     282.733    -143.414
  O     -174.510     281.893    -143.939
  C     -173.288     284.058    -144.166
  N     -172.477     283.877    -145.367
  C     -173.122     283.338    -146.483
  O     -174.313     283.027    -146.425
  N     -172.395     283.104    -147.621
  C     -171.112     283.309    -147.617
  N     -170.437     283.031    -148.767
  C     -170.377     283.814    -146.439
  C     -171.116     284.081    -145.362
  O     -168.801     281.967    -141.971
  O     -168.764     284.467    -142.567
  H     -175.317     282.436    -144.068
  H     -168.538     281.895    -142.909
  H     -169.306     283.945    -146.477
  H     -170.664     284.447    -144.448
  H     -174.260     284.480    -144.458
  H     -172.546     282.158    -143.412
  H     -173.518     282.477    -141.249
  H     -173.581     285.306    -141.420
  H     -170.974     282.670    -149.547
  H     -171.105     285.297    -141.198
  H     -169.438     283.110    -148.861
  H     -171.884     284.177    -140.055
  P     -175.832     283.406    -140.444
  C     -176.089     280.820    -140.366
  O     -176.740     282.083    -140.411
  O     -176.897     284.599    -140.413
  O     -174.841     283.521    -139.332
  H     -176.584     285.309    -139.822
  H     -176.822     280.041    -140.348
  H     -175.485     280.761    -139.485
  H     -175.470     280.707    -141.231

 6  7  8  9  10  11  12  13  14  15  16  26  30  31  32  33  35 0
 6-311+G(2d,p)
 ****
 37  38 0
 6-311+G(2d,p)
 ****
 1  2  3  4  5  17  18  19  20  21  22  23  24  25 0
 3-21G
 ****
 27  28  29  34  36  39  40  41  42  43  44  45  46 0
 3-21G
 ****


