%nproc=1
%NoSave
%Mem=1900MB
#P OB98/GEN NMR

erre ene a

0 1
  C      -53.485    -202.739     135.094
  O      -52.804    -201.587     135.547
  H      -54.237    -202.468     134.346
  H      -52.761    -203.418     134.638
  H      -53.964    -203.247     135.936
  P      -53.715    -200.415     136.157
  C      -53.441    -199.048     133.972
  O      -54.340    -199.627     134.905
  C      -53.903    -199.335     132.547
  O      -54.622    -200.584     132.500
  C      -54.856    -198.298     131.965
  O      -54.167    -197.138     131.514
  C      -55.449    -199.084     130.804
  O      -54.538    -199.065     129.690
  C      -55.545    -200.505     131.382
  N      -60.424    -201.342     130.014
  C      -59.330    -200.999     129.293
  N      -58.071    -200.782     129.723
  C      -57.981    -200.968     131.050
  C      -59.006    -201.319     131.916
  C      -60.280    -201.502     131.349
  N      -61.389    -201.834     132.096
  N      -58.538    -201.431     133.207
  C      -57.253    -201.156     133.127
  N      -56.870    -200.862     131.843
  O      -52.645    -199.378     136.747
  O      -54.693    -200.843     137.199
  H      -53.682    -199.402     130.022
  H      -53.007    -198.979     137.562
  H      -59.491    -200.888     128.223
  H      -56.564    -201.161     133.962
  H      -55.225    -201.257     130.650
  H      -56.402    -198.680     130.456
  H      -55.648    -198.044     132.675
  H      -53.008    -199.439     131.918
  H      -52.442    -199.471     134.119
  H      -62.218    -202.144     131.616
  H      -61.269    -201.960     133.096
  H      -53.396    -197.967     134.147
  P      -54.510    -195.746     132.240
  C      -56.025    -195.175     130.212
  O      -55.919    -195.278     131.629
  O      -53.465    -194.729     131.579
  O      -54.407    -195.764     133.728
  H      -53.300    -193.982     132.189
  H      -57.012    -194.855     129.950
  H      -55.830    -196.130     129.769
  H      -55.312    -194.463     129.852

 6  7  8  9  10  11  12  13  14  15  25  28  32  33  34  35 0
 6-311+G(2d,p)
 ****
 36  39  40 0
 6-311+G(2d,p)
 ****
 1  2  3  4  5  16  17  18  19  20  21  22  23  24 0
 3-21G
 ****
 26  27  29  30  31  37  38  41  42  43  44  45  46  47  48 0
 3-21G
 ****


