%nproc=1
%NoSave
%Mem=1900MB
#P OB98/GEN NMR

erre ene a

0 1
  C        7.379    -106.223    -141.329
  O        8.289    -106.051    -140.259
  H        7.663    -105.546    -142.140
  H        6.365    -105.972    -141.007
  H        7.411    -107.250    -141.705
  P        8.159    -107.001    -138.974
  C        6.558    -107.212    -136.971
  O        6.830    -106.542    -138.195
  C        5.517    -106.444    -136.159
  O        6.184    -105.380    -135.428
  C        4.413    -105.807    -137.016
  O        3.178    -105.904    -136.310
  C        4.835    -104.352    -137.106
  O        3.728    -103.479    -137.319
  C        5.528    -104.140    -135.760
  N        6.169     -99.192    -134.950
  C        5.076    -100.001    -134.708
  N        3.977     -99.403    -134.195
  N        5.060    -101.287    -134.948
  C        6.230    -101.755    -135.447
  C        7.380    -101.057    -135.730
  C        7.382     -99.631    -135.474
  O        8.314     -98.863    -135.678
  N        8.348    -101.885    -136.249
  C        7.781    -103.077    -136.281
  N        6.490    -103.050    -135.815
  O        9.380    -107.087    -138.114
  O        7.757    -108.425    -139.581
  H        4.092    -102.573    -137.428
  H        8.535    -109.011    -139.630
  H        6.125     -98.205    -134.753
  H        8.251    -103.987    -136.636
  H        4.818    -103.895    -134.959
  H        5.542    -104.222    -137.936
  H        3.923     -98.422    -133.970
  H        4.318    -106.271    -138.002
  H        3.170     -99.981    -133.987
  H        5.089    -107.122    -135.411
  H        7.494    -107.280    -136.401
  H        6.199    -108.225    -137.183
  P        2.293    -107.232    -136.478
  C        0.810    -108.244    -138.328
  O        1.367    -107.056    -137.778
  O        1.586    -107.698    -135.249
  O        3.372    -108.315    -136.970
  H        3.095    -109.201    -136.660
  H        0.217    -107.997    -139.184
  H        0.195    -108.722    -137.595
  H        1.599    -108.906    -138.619

 6  7  8  9  10  11  12  13  14  15  26  29  33  34 0
 6-311+G(2d,p)
 ****
 36  38  39  40  41 0
 6-311+G(2d,p)
 ****
 1  2  3  4  5  16  17  18  19  20  21  22  23  24  25 0
 3-21G
 ****
 27  28  30  31  32  35  37  42  43  44  45  46  47 0
 3-21G
 ****
 48  49 0
 3-21G
 ****


