%nproc=1
%NoSave
%Mem=1900MB
#P OB98/GEN NMR

erre ene a

0 1
  C       42.467     542.768    -756.098
  O       42.905     543.118    -754.777
  P       41.784     543.357    -753.651
  C       41.141     545.853    -754.052
  O       40.778     544.495    -754.193
  C       40.097     546.758    -754.690
  O       38.753     546.273    -754.456
  C       40.119     548.194    -754.172
  O       41.107     548.981    -754.814
  C       38.728     548.679    -754.564
  O       38.725     549.045    -755.969
  C       37.868     547.414    -754.336
  N       33.594     548.449    -751.844
  C       33.889     548.595    -753.178
  N       32.907     549.053    -753.972
  N       35.053     548.286    -753.698
  C       35.935     547.813    -752.790
  C       35.759     547.641    -751.437
  C       34.463     547.989    -750.869
  O       34.152     547.918    -749.679
  N       36.892     547.152    -750.839
  C       37.744     547.000    -751.832
  N       37.214     547.413    -753.039
  O       42.605     544.122    -752.505
  O       41.154     542.104    -753.147
  H       39.339     549.800    -756.063
  H       42.188     543.937    -751.639
  H       32.671     548.715    -751.494
  H       38.758     546.608    -751.731
  H       37.085     547.307    -755.096
  H       38.412     549.557    -754.007
  H       31.977     549.266    -753.653
  H       40.224     548.209    -753.064
  H       33.097     549.118    -754.982
  H       40.275     546.778    -755.782
  H       42.127     546.030    -754.519
  H       41.276     546.082    -752.983
  P       42.519     549.180    -754.066
  C       41.985     551.647    -753.473
  O       42.300     550.361    -752.999
  O       43.432     549.850    -755.209
  O       43.123     547.909    -753.545
  H       44.367     549.578    -755.084
  H       41.710     552.285    -752.615
  H       41.137     551.630    -754.160
  H       42.854     552.092    -753.962
  H       43.318     542.642    -756.734
  H       41.845     543.547    -756.486
  H       41.912     541.854    -756.059

 3  4  5  6  7  8  9  10  11  12  23  26  30  31 0
 6-311+G(2d,p)
 ****
 33  35  36  37  38 0
 6-311+G(2d,p)
 ****
 1  2  13  14  15  16  17  18  19  20  21  22  24  25 0
 3-21G
 ****
 27  28  29  32  34  39  40  41  42  43  44  45  46  47  48  49 0
 3-21G
 ****


