%nproc=1
%NoSave
%Mem=1900MB
#P OB98/GEN NMR

erre ene a

0 1
  C      -27.223      -0.774      40.342
  O      -27.011      -1.134      38.992
  H      -26.515      -1.330      40.964
  H      -28.237      -1.043      40.645
  H      -27.057       0.295      40.491
  P      -27.822      -0.362      37.847
  C      -26.161       1.612      37.862
  O      -26.779       0.595      37.088
  C      -24.672       1.727      37.517
  O      -24.042       0.441      37.749
  C      -24.406       2.123      36.063
  O      -23.271       2.988      36.013
  C      -24.077       0.804      35.393
  O      -23.253       0.972      34.241
  C      -23.397       0.037      36.526
  N      -21.395      -3.960      34.172
  C      -20.978      -2.645      34.205
  N      -19.873      -2.342      33.490
  N      -21.591      -1.706      34.877
  C      -22.669      -2.157      35.564
  C      -23.183      -3.431      35.612
  C      -22.506      -4.456      34.847
  O      -22.839      -5.634      34.767
  N      -24.302      -3.486      36.406
  C      -24.463      -2.249      36.834
  N      -23.506      -1.402      36.342
  O      -29.071       0.320      38.309
  O      -28.139      -1.488      36.759
  H      -22.455       1.466      34.531
  H      -29.075      -1.758      36.796
  H      -20.893      -4.641      33.629
  H      -25.253      -1.913      37.493
  H      -22.328       0.269      36.604
  H      -25.003       0.305      35.081
  H      -19.338      -3.019      32.969
  H      -25.263       2.617      35.606
  H      -19.528      -1.390      33.521
  H      -24.209       2.439      38.210
  H      -26.274       1.355      38.920
  H      -26.665       2.567      37.674
  P      -23.478       4.559      36.266
  C      -23.483       5.311      38.723
  O      -22.683       4.977      37.597
  O      -24.889       5.039      36.198
  O      -22.591       5.224      35.106
  H      -23.027       6.047      34.808
  H      -22.850       5.571      39.546
  H      -24.089       4.471      38.991
  H      -24.112       6.142      38.480

 6  7  8  9  10  11  12  13  14  15  26  29  33  34 0
 6-311+G(2d,p)
 ****
 36  38  39  40  41 0
 6-311+G(2d,p)
 ****
 1  2  3  4  5  16  17  18  19  20  21  22  23  24  25 0
 3-21G
 ****
 27  28  30  31  32  35  37  42  43  44  45  46  47 0
 3-21G
 ****
 48  49 0
 3-21G
 ****


