%nproc=1
%NoSave
%Mem=1900MB
#P OB98/GEN NMR

erre ene a

0 1
  C     -122.587     209.530    -151.559
  O     -123.475     208.702    -152.282
  H     -122.090     210.230    -152.235
  H     -123.156     210.097    -150.819
  H     -121.841     208.920    -151.040
  P     -122.841     207.806    -153.451
  C     -123.329     205.481    -152.411
  O     -123.630     206.404    -153.448
  C     -124.599     204.754    -151.978
  O     -125.292     205.578    -151.008
  C     -125.579     204.435    -153.121
  O     -125.823     203.026    -153.187
  C     -126.870     205.133    -152.720
  O     -128.036     204.358    -152.998
  C     -126.692     205.368    -151.225
  N     -131.319     206.897    -149.731
  C     -130.743     205.676    -149.744
  N     -129.471     205.350    -150.054
  C     -128.759     206.451    -150.351
  C     -129.200     207.765    -150.354
  C     -130.554     207.970    -150.044
  N     -131.155     209.209    -150.083
  N     -128.178     208.622    -150.717
  C     -127.152     207.833    -150.971
  N     -127.460     206.514    -150.781
  O     -121.395     207.423    -152.878
  O     -122.748     208.475    -154.780
  H     -128.797     204.967    -152.942
  H     -120.718     207.584    -153.561
  H     -131.394     204.846    -149.480
  H     -126.185     208.161    -151.335
  H     -127.000     204.498    -150.631
  H     -126.945     206.081    -153.266
  H     -125.222     204.795    -154.095
  H     -124.306     203.830    -151.461
  H     -122.916     206.020    -151.549
  H     -132.154     209.249    -149.964
  H     -130.619     209.993    -150.424
  H     -122.576     204.771    -152.771
  P     -126.609     202.492    -154.486
  C     -124.644     200.874    -155.036
  O     -126.039     201.027    -154.816
  O     -126.006     203.395    -155.663
  O     -128.092     202.608    -154.391
  H     -126.656     203.476    -156.386
  H     -124.426     199.847    -155.242
  H     -124.109     201.184    -154.163
  H     -124.346     201.476    -155.869

 6  7  8  9  10  11  12  13  14  15  25  28  32  33  34  35 0
 6-311+G(2d,p)
 ****
 36  39  40 0
 6-311+G(2d,p)
 ****
 1  2  3  4  5  16  17  18  19  20  21  22  23  24 0
 3-21G
 ****
 26  27  29  30  31  37  38  41  42  43  44  45  46  47  48 0
 3-21G
 ****


