%nproc=1
%NoSave
%Mem=1900MB
#P OB98/GEN NMR

erre ene a

0 1
  C      192.771     712.998     368.020
  O      192.987     713.873     369.112
  H      192.837     713.569     367.094
  H      191.772     712.549     368.088
  H      193.529     712.213     368.016
  P      192.874     713.240     370.579
  C      190.458     713.960     371.135
  O      191.315     712.888     370.741
  C      189.010     713.476     371.248
  O      188.914     712.575     372.388
  C      187.999     714.606     371.468
  O      186.782     714.286     370.792
  C      187.755     714.563     372.966
  O      186.498     715.144     373.328
  C      187.864     713.066     373.249
  N      186.154     713.647     378.006
  C      185.565     713.837     376.802
  N      186.093     713.632     375.576
  C      187.341     713.133     375.671
  C      188.064     712.880     376.822
  C      187.418     713.167     378.040
  N      188.015     713.008     379.268
  N      189.323     712.408     376.505
  C      189.355     712.364     375.187
  N      188.181     712.804     374.640
  O      193.462     714.053     371.685
  O      193.531     711.793     370.368
  H      185.784     714.646     372.880
  H      193.190     711.362     369.564
  H      184.545     714.206     376.827
  H      190.194     712.032     374.582
  H      186.944     712.521     373.016
  H      188.542     715.118     373.490
  H      188.362     715.582     371.137
  H      188.765     712.885     370.359
  H      190.516     714.777     370.408
  H      187.484     713.245     380.091
  H      188.958     712.650     379.323
  H      190.811     714.335     372.107
  P      186.443     715.042     369.415
  C      184.815     716.972     369.942
  O      186.170     716.590     369.730
  O      185.412     714.388     368.556
  O      187.861     715.086     368.672
  H      187.732     714.886     367.718
  H      184.768     718.022     370.141
  H      184.419     716.432     370.777
  H      184.240     716.749     369.067

 6  7  8  9  10  11  12  13  14  15  25  28  32  33  34  35 0
 6-311+G(2d,p)
 ****
 36  39  40 0
 6-311+G(2d,p)
 ****
 1  2  3  4  5  16  17  18  19  20  21  22  23  24 0
 3-21G
 ****
 26  27  29  30  31  37  38  41  42  43  44  45  46  47 0
 3-21G
 ****
 48 0
 3-21G
 ****


