%nproc=1
%NoSave
%Mem=1900MB
#P OB98/GEN NMR

erre ene a

0 1
  C      -67.607      64.601     -51.892
  O      -66.525      64.651     -50.987
  P      -66.697      64.496     -49.406
  C      -65.043      62.536     -48.988
  O      -66.400      62.965     -49.016
  C      -64.898      61.009     -48.924
  O      -65.331      60.432     -50.173
  C      -63.425      60.625     -48.758
  O      -62.829      60.623     -47.476
  C      -63.263      59.330     -49.544
  O      -63.316      58.172     -48.709
  C      -64.450      59.349     -50.509
  N      -62.798      56.942     -54.653
  C      -63.345      56.413     -53.500
  N      -63.261      55.072     -53.368
  N      -63.896      57.138     -52.561
  C      -63.817      58.470     -52.793
  C      -63.313      59.110     -53.901
  C      -62.745      58.295     -54.949
  O      -62.175      58.729     -55.947
  N      -63.333      60.472     -53.757
  C      -63.811      60.661     -52.544
  N      -64.082      59.474     -51.905
  O      -67.874      65.177     -48.788
  O      -65.370      65.244     -48.871
  H      -62.710      58.315     -47.960
  H      -65.601      65.682     -48.029
  H      -62.316      56.337     -55.306
  H      -63.947      61.626     -52.071
  H      -65.038      58.429     -50.416
  H      -62.290      59.302     -50.048
  H      -62.717      54.500     -53.999
  H      -62.841      61.367     -49.318
  H      -63.496      54.669     -52.468
  H      -65.553      60.584     -48.158
  H      -64.569      63.006     -48.121
  H      -64.525      62.907     -49.877
  P      -61.712      61.636     -46.946
  C      -62.756      62.801     -44.923
  O      -62.445      62.904     -46.301
  O      -61.062      62.241     -48.279
  O      -60.657      61.017     -46.089
  H      -60.170      62.583     -48.084
  H      -63.501      63.558     -44.668
  H      -61.853      62.977     -44.330
  H      -63.158      61.811     -44.685
  H      -67.243      64.729     -52.890
  H      -68.301      65.383     -51.662
  H      -68.097      63.654     -51.810

 3  4  5  6  7  8  9  10  11  12  23  26  30  31 0
 6-311+G(2d,p)
 ****
 33  35  36  37  38 0
 6-311+G(2d,p)
 ****
 1  2  13  14  15  16  17  18  19  20  21  22  24  25 0
 3-21G
 ****
 27  28  29  32  34  39  40  41  42  43  44  45  46  47  48  49 0
 3-21G
 ****


