%nproc=1
%NoSave
%Mem=1900MB
#P OB98/GEN NMR

erre ene a

0 1
  C      215.931    -213.761    -388.638
  O      215.699    -212.894    -389.728
  H      216.064    -213.163    -387.734
  H      216.846    -214.331    -388.818
  H      215.090    -214.443    -388.492
  P      215.091    -213.540    -391.065
  C      212.584    -213.933    -390.515
  O      213.548    -213.092    -391.131
  C      211.601    -214.467    -391.556
  O      210.904    -215.618    -390.988
  C      210.536    -213.448    -391.999
  O      210.267    -213.637    -393.393
  C      209.310    -213.882    -391.215
  O      208.099    -213.451    -391.825
  C      209.499    -215.396    -391.209
  N      207.282    -219.726    -389.978
  C      208.202    -219.439    -390.966
  N      208.545    -220.444    -391.798
  N      208.740    -218.259    -391.128
  C      208.326    -217.347    -390.215
  C      207.419    -217.505    -389.196
  C      206.816    -218.811    -389.035
  O      205.982    -219.123    -388.193
  N      207.222    -216.322    -388.528
  C      207.991    -215.450    -389.159
  N      208.679    -216.026    -390.190
  O      215.014    -215.097    -390.695
  O      215.879    -213.301    -392.307
  H      208.126    -212.477    -391.902
  H      215.814    -215.552    -391.018
  H      206.885    -220.646    -389.905
  H      208.069    -214.398    -388.923
  H      209.226    -215.858    -392.168
  H      209.352    -213.476    -390.197
  H      208.196    -221.387    -391.718
  H      210.816    -212.406    -391.814
  H      209.248    -220.258    -392.504
  H      212.170    -214.833    -392.420
  H      212.030    -213.356    -389.766
  H      213.095    -214.760    -390.012
  P      209.876    -212.352    -394.267
  C      212.271    -211.608    -394.963
  O      211.013    -212.120    -395.376
  O      210.105    -211.140    -393.248
  O      208.476    -212.374    -394.783
  H      209.449    -210.439    -393.414
  H      212.913    -211.512    -395.813
  H      212.714    -212.278    -394.255
  H      212.134    -210.649    -394.509

 6  7  8  9  10  11  12  13  14  15  26  29  33  34 0
 6-311+G(2d,p)
 ****
 36  38  39  40  41 0
 6-311+G(2d,p)
 ****
 1  2  3  4  5  16  17  18  19  20  21  22  23  24  25 0
 3-21G
 ****
 27  28  30  31  32  35  37  42  43  44  45  46  47 0
 3-21G
 ****
 48  49 0
 3-21G
 ****


