%nproc=1
%NoSave
%Mem=1900MB
#P OB98/GEN NMR

erre ene a

0 1
  C     -162.814     -83.642      32.201
  O     -163.701     -84.727      32.435
  P     -163.117     -86.006      33.212
  C     -161.490     -87.925      32.579
  O     -162.249     -86.810      32.128
  C     -161.280     -88.922      31.448
  O     -162.544     -89.492      31.059
  C     -160.696     -88.324      30.177
  O     -159.287     -88.173      30.260
  C     -161.072     -89.385      29.153
  O     -160.121     -90.464      29.200
  C     -162.445     -89.860      29.660
  N     -164.831     -89.512      25.207
  C     -163.710     -90.239      25.557
  N     -163.163     -91.003      24.586
  N     -163.173     -90.217      26.747
  C     -163.849     -89.441      27.625
  C     -164.970     -88.672      27.399
  C     -165.524     -88.665      26.062
  O     -166.477     -87.990      25.678
  N     -165.376     -88.034      28.542
  C     -164.529     -88.442      29.465
  N     -163.565     -89.273      28.952
  O     -164.409     -86.930      33.409
  O     -162.444     -85.707      34.508
  H     -159.231     -90.062      29.205
  H     -164.283     -87.516      34.181
  H     -165.213     -89.579      24.280
  H     -164.576     -88.162      30.508
  H     -162.533     -90.951      29.608
  H     -161.076     -89.006      28.126
  H     -163.605     -91.163      23.694
  H     -161.187     -87.378      29.923
  H     -162.363     -91.571      24.834
  H     -160.642     -89.735      31.821
  H     -162.026     -88.420      33.395
  H     -160.528     -87.567      32.961
  P     -158.655     -86.900      29.510
  C     -158.667     -86.156      27.021
  O     -158.806     -87.216      27.947
  O     -157.087     -87.052      29.787
  O     -159.188     -85.587      29.974
  H     -156.652     -86.179      29.749
  H     -157.906     -85.441      27.343
  H     -159.625     -85.642      26.909
  H     -158.371     -86.568      26.054
  H     -163.331     -82.865      31.679
  H     -161.987     -83.978      31.612
  H     -162.456     -83.266      33.137

 3  4  5  6  7  8  9  10  11  12  23  26  30  31  33  0
 6-311+G(2d,p)
 ****
 35  36  37  38 0
 6-311+G(2d,p)
 ****
 1  2  13  14  15  16  17  18  19  20  21  22  24  25  27  28  29 0
 3-21G
 ****
 32  34  39  40  41  42  43  44  45  46  47  48  49 0
 3-21G
 ****


