%nproc=1
%NoSave
%Mem=1900MB
#P OB98/GEN NMR

erre ene a

0 1
  C      220.132     306.954     188.255
  O      220.512     306.677     189.588
  H      220.563     307.915     187.962
  H      219.044     307.021     188.176
  H      220.506     306.182     187.577
  P      220.123     305.260     190.224
  C      222.203     304.350     189.004
  O      220.834     304.137     189.328
  C      222.963     303.029     189.064
  O      224.356     303.238     188.746
  C      222.944     302.368     190.437
  O      221.691     301.764     190.689
  C      224.115     301.406     190.298
  O      223.734     300.234     189.561
  C      225.119     302.256     189.483
  N      226.135     302.894     190.324
  C      227.232     302.112     190.661
  O      227.366     300.947     190.299
  N      228.154     302.705     191.482
  C      228.041     303.942     192.051
  O      228.775     304.344     192.948
  C      226.901     304.749     191.597
  C      226.004     304.191     190.778
  O      218.668     305.039     190.478
  O      220.968     305.218     191.587
  H      220.382     305.433     192.337
  H      224.564     299.792     189.297
  H      228.932     302.130     191.774
  H      226.807     305.760     191.975
  H      225.137     304.762     190.453
  H      225.636     301.631     188.743
  H      224.493     301.067     191.266
  H      223.183     303.105     191.213
  H      222.541     302.357     188.304
  H      222.627     305.049     189.734
  H      222.269     304.794     188.005
  P      221.414     300.973     192.052
  C      219.408     302.468     192.621
  O      220.663     301.971     193.060
  O      222.596     300.275     192.634
  O      220.264     299.923     191.670
  H      220.550     299.025     191.932
  H      219.001     303.119     193.367
  H      218.738     301.650     192.458
  H      219.539     303.010     191.708

 6  7  8  9  10  11  12  13  14  15  16  27  31  32  33  34  35 0
 6-311+G(2d,p)
 ****
 36  37 0
 6-311+G(2d,p)
 ****
 1  2  3  4  5  17  18  19  20  21  22  23  24  25 0
 3-21G
 ****
 26  28  29  30  38  39  40  41  42  43  44  45 0
 3-21G
 ****


