%nproc=1
%NoSave
%Mem=1900MB
#P OB98/GEN NMR

erre ene a

0 1
  C      -78.202     -65.916     183.038
  O      -78.301     -67.323     183.029
  H      -78.806     -65.529     183.863
  H      -78.594     -65.516     182.099
  H      -77.170     -65.587     183.175
  P      -77.191     -68.167     182.246
  C      -78.559     -68.833     180.159
  O      -77.489     -68.047     180.670
  C      -78.546     -68.876     178.631
  O      -78.373     -67.540     178.110
  C      -77.396     -69.719     178.076
  O      -77.685     -71.101     177.951
  C      -77.167     -69.081     176.708
  O      -78.008     -69.681     175.707
  C      -77.559     -67.616     176.930
  N      -72.875     -66.388     175.290
  C      -73.627     -67.513     175.000
  N      -73.036     -68.432     174.208
  N      -74.831     -67.709     175.466
  C      -75.250     -66.750     176.324
  C      -74.587     -65.603     176.700
  C      -73.281     -65.358     176.124
  O      -72.582     -64.370     176.334
  N      -75.304     -64.883     177.623
  C      -76.358     -65.639     177.868
  N      -76.406     -66.739     177.045
  O      -77.594     -69.690     182.556
  O      -75.773     -67.904     182.654
  H      -77.842     -70.643     175.713
  H      -76.792     -70.241     182.575
  H      -71.965     -66.278     174.879
  H      -77.134     -65.414     178.590
  H      -78.168     -67.235     176.098
  H      -76.134     -69.223     176.377
  H      -72.082     -68.373     173.894
  H      -76.488     -69.576     178.672
  H      -73.475     -69.353     174.127
  H      -79.518     -69.238     178.270
  H      -79.482     -68.370     180.513
  H      -78.517     -69.844     180.570
  P      -76.701     -72.204     178.559
  C      -74.660     -72.165     176.909
  O      -75.206     -71.819     178.164
  O      -77.002     -73.491     177.661
  O      -76.874     -72.486     180.016
  H      -77.617     -74.097     178.119
  H      -73.651     -71.814     176.850
  H      -75.240     -71.714     176.131
  H      -74.675     -73.229     176.795

 6  7  8  9  10  11  12  13  14  15  26  29  33  34 0
 6-311+G(2d,p)
 ****
 36  38  39  40  41 0
 6-311+G(2d,p)
 ****
 1  2  3  4  5  16  17  18  19  20  21  22  23  24  25 0
 3-21G
 ****
 27  28  30  31  32  35  37  42  43  44  45  46  47 0
 3-21G
 ****
 48  49 0
 3-21G
 ****


