%nproc=1
%NoSave
%Mem=1900MB
#P OB98/GEN NMR

erre ene a

0 1
  C     1079.879    2348.062    -207.441
  O     1078.480    2348.382    -207.619
  P     1077.792    2348.788    -208.993
  C     1076.269    2346.662    -209.207
  O     1077.343    2347.446    -209.723
  C     1075.757    2345.619    -210.192
  O     1076.832    2344.923    -210.854
  C     1074.920    2344.545    -209.444
  O     1073.547    2344.785    -209.174
  C     1075.166    2343.231    -210.226
  O     1074.169    2343.002    -211.239
  C     1076.512    2343.511    -210.941
  N     1078.733    2338.900    -210.662
  C     1077.570    2339.283    -211.283
  N     1076.852    2338.292    -211.901
  N     1077.137    2340.500    -211.325
  C     1077.839    2341.389    -210.590
  C     1079.014    2341.124    -209.904
  C     1079.548    2339.777    -209.918
  O     1080.577    2339.407    -209.402
  N     1079.483    2342.253    -209.281
  C     1078.595    2343.193    -209.558
  N     1077.573    2342.697    -210.355
  O     1078.551    2349.779    -209.784
  O     1076.395    2349.456    -208.527
  H     1074.443    2342.260    -211.816
  H     1076.216    2350.137    -209.178
  H     1079.036    2337.939    -210.672
  H     1078.635    2344.215    -209.228
  H     1076.477    2343.291    -212.018
  H     1075.161    2342.382    -209.571
  H     1077.093    2337.328    -211.829
  H     1075.411    2344.380    -208.491
  H     1075.894    2338.515    -212.198
  H     1075.172    2346.098    -211.004
  H     1075.478    2347.365    -208.933
  H     1076.604    2346.159    -208.274
  P     1072.993    2345.713    -207.956
  C     1071.884    2347.517    -209.431
  O     1072.929    2347.208    -208.520
  O     1074.219    2345.777    -206.903
  O     1071.721    2345.252    -207.313
  H     1073.882    2346.105    -206.059
  H     1072.114    2348.484    -209.965
  H     1070.971    2347.684    -208.833
  H     1071.717    2346.712    -210.174
  H     1080.063    2347.826    -206.414
  H     1080.476    2348.903    -207.726
  H     1080.133    2347.221    -208.051

 3  4  5  6  7  8  9  10  11  12  23  26  30  31 0
 6-311+G(2d,p)
 ****
 33  35  36  37  38 0
 6-311+G(2d,p)
 ****
 1  2  13  14  15  16  17  18  19  20  21  22  24  25 0
 3-21G
 ****
 27  28  29  32  34  39  40  41  42  43  44  45  46  47  48  49 0
 3-21G
 ****


