%nproc=1
%NoSave
%Mem=1900MB
#P OB98/GEN NMR

erre ene a

0 1
  C      173.171     -54.385     -33.973
  O      172.592     -54.687     -35.253
  P      171.537     -53.715     -35.989
  C      169.461     -55.237     -36.185
  O      170.044     -54.112     -35.543
  C      167.952     -55.054     -36.402
  O      167.438     -56.113     -37.267
  C      167.119     -55.062     -35.113
  O      166.090     -54.074     -35.282
  C      166.549     -56.475     -35.120
  O      165.412     -56.641     -34.276
  C      166.258     -56.632     -36.619
  N      165.971     -57.997     -37.061
  C      164.637     -58.408     -37.083
  O      163.734     -57.679     -36.690
  N      164.350     -59.679     -37.547
  C      165.308     -60.457     -37.940
  N      164.955     -61.698     -38.400
  C      166.729     -60.065     -37.920
  C      166.987     -58.843     -37.479
  O      171.718     -53.661     -37.477
  O      171.762     -52.270     -35.343
  H      171.633     -51.589     -36.031
  H      165.035     -57.515     -34.448
  H      167.498     -60.744     -38.268
  H      168.004     -58.460     -37.458
  H      165.414     -55.980     -36.895
  H      167.318     -57.173     -34.773
  H      167.693     -54.818     -34.215
  H      167.801     -54.111     -36.952
  H      163.968     -61.924     -38.406
  H      169.621     -56.119     -35.554
  H      165.618     -62.375     -38.741
  H      169.971     -55.412     -37.139
  P      166.091     -52.756     -34.376
  C      164.160     -53.401     -32.737
  O      165.540     -53.165     -32.915
  O      164.843     -51.937     -34.970
  O      167.336     -51.923     -34.424
  H      164.979     -50.991     -34.804
  H      164.027     -54.300     -32.130
  H      163.627     -53.525     -33.688
  H      163.727     -52.546     -32.198
  H      173.838     -55.172     -33.689
  H      172.394     -54.294     -33.243
  H      173.712     -53.464     -34.035

 3  4  5  6  7  8  9  10  11  12  13  24  27  28  29  30  32 0
 6-311+G(2d,p)
 ****
 34  35 0
 6-311+G(2d,p)
 ****
 1  2  14  15  16  17  18  19  20  21  22  23  25  26 0
 3-21G
 ****
 31  33  36  37  38  39  40  41  42  43  44  45  46 0
 3-21G
 ****


