%nproc=1
%NoSave
%Mem=1900MB
#P OB98/GEN NMR

erre ene a

0 1
  C      -53.681     693.470     473.377
  O      -52.399     694.069     473.393
  H      -54.144     693.607     474.360
  H      -53.587     692.399     473.180
  H      -54.312     693.935     472.616
  P      -51.568     694.002     472.021
  C      -49.964     692.083     472.740
  O      -51.028     692.496     471.901
  C      -49.122     691.010     472.037
  O      -48.642     691.546     470.763
  C      -47.878     690.574     472.836
  O      -47.588     689.202     472.512
  C      -46.800     691.464     472.239
  O      -45.519     690.977     472.565
  C      -47.203     691.414     470.772
  N      -42.768     693.328     469.137
  C      -43.063     692.220     469.856
  N      -44.282     691.778     470.244
  C      -45.246     692.591     469.787
  C      -45.098     693.749     469.049
  C      -43.783     694.122     468.729
  N      -43.470     695.260     468.013
  N      -46.334     694.329     468.799
  C      -47.201     693.524     469.372
  N      -46.586     692.459     469.981
  O      -50.250     694.852     472.353
  O      -52.276     694.512     470.809
  H      -45.330     691.089     473.516
  H      -50.381     695.781     472.090
  H      -42.217     691.618     470.159
  H      -48.279     693.662     469.382
  H      -46.953     690.460     470.299
  H      -46.869     692.485     472.640
  H      -48.000     690.675     473.915
  H      -49.766     690.147     471.795
  H      -50.380     691.680     473.663
  H      -49.327     692.940     472.976
  H      -42.502     695.470     467.852
  H      -44.214     695.883     467.733
  P      -48.046     688.047     473.527
  C      -46.036     688.019     475.184
  O      -47.414     688.290     474.981
  O      -47.212     686.785     472.995
  O      -49.511     687.734     473.522
  H      -47.790     686.001     472.946
  H      -45.777     688.232     476.200
  H      -45.452     688.633     474.531
  H      -45.841     686.988     474.974

 6  7  8  9  10  11  12  13  14  15  25  28  32  33  34  35 0
 6-311+G(2d,p)
 ****
 36  37  40 0
 6-311+G(2d,p)
 ****
 1  2  3  4  5  16  17  18  19  20  21  22  23  24 0
 3-21G
 ****
 26  27  29  30  31  38  39 41  42  43  44  45  46  47  48 0
 3-21G
 ****


