%nproc=1
%NoSave
%Mem=1900MB
#P OB98/GEN NMR

erre ene a

0 1
  C      -92.370    -243.421     295.901
  O      -93.372    -243.299     296.888
  H      -92.830    -243.780     294.975
  H      -91.612    -244.141     296.219
  H      -91.906    -242.451     295.709
  P      -92.910    -242.740     298.319
  C      -93.685    -240.362     297.599
  O      -92.636    -241.170     298.120
  C      -94.366    -239.604     298.733
  O      -94.801    -240.541     299.744
  C      -93.459    -238.616     299.455
  O      -93.314    -237.404     298.734
  C      -94.198    -238.447     300.779
  O      -95.258    -237.487     300.673
  C      -94.780    -239.848     301.012
  N      -93.996    -240.598     305.993
  C      -94.877    -239.824     305.323
  N      -95.034    -239.694     303.989
  C      -94.164    -240.480     303.331
  C      -93.205    -241.317     303.879
  C      -93.136    -241.363     305.280
  N      -92.213    -242.124     305.962
  N      -92.469    -241.925     302.882
  C      -92.983    -241.474     301.753
  N      -94.012    -240.604     301.981
  O      -91.444    -243.363     298.489
  O      -93.805    -243.091     299.460
  H      -95.828    -237.780     299.934
  H      -91.499    -244.192     299.001
  H      -95.541    -239.227     305.942
  H      -92.640    -241.740     300.761
  H      -95.813    -239.811     301.377
  H      -93.528    -238.105     301.566
  H      -92.481    -239.069     299.650
  H      -95.251    -239.099     298.332
  H      -94.421    -241.006     297.101
  H      -93.265    -239.667     296.866
  H      -92.207    -242.090     306.966
  H      -91.502    -242.614     305.438
  P      -92.059    -236.464     299.063
  C      -90.591    -236.720     296.930
  O      -90.785    -237.069     298.295
  O      -91.757    -236.778     300.603
  O      -92.293    -235.009     298.826
  H      -92.129    -236.077     301.171
  H      -89.707    -237.198     296.562
  H      -90.484    -235.659     296.845
  H      -91.435    -237.041     296.356

 6  7  8  9  10  11  12  13  14  15  25  28  32  33  34  35 0
 6-311+G(2d,p)
 ****
 36  37  40 0
 6-311+G(2d,p)
 ****
 1  2  3  4  5  16  17  18  19  20  21  22  23  24 0
 3-21G
 ****
 26  27  29  30  31  38  39 41  42  43  44  45  46  47  48 0
 3-21G
 ****


