%nproc=1
%NoSave
%Mem=1900MB
#P OB98/GEN NMR

erre ene a

0 1
  C       98.002      44.543    -277.532
  O       98.484      45.868    -277.420
  H       97.105      44.550    -278.159
  H       97.742      44.136    -276.551
  H       98.754      43.907    -278.011
  P       99.642      46.159    -276.346
  C       98.410      48.320    -275.641
  O       99.628      47.753    -276.123
  C       98.432      49.845    -275.756
  O       99.239      50.413    -274.710
  C       99.043      50.351    -277.057
  O       98.268      50.091    -278.206
  C       99.412      51.787    -276.708
  O       98.342      52.709    -276.888
  C       99.756      51.671    -275.202
  N      101.183      51.812    -274.951
  C      101.610      53.074    -274.554
  O      100.850      54.040    -274.437
  N      102.950      53.208    -274.339
  C      103.895      52.241    -274.522
  O      105.094      52.437    -274.354
  C      103.389      50.932    -274.970
  C      102.077      50.776    -275.159
  O      100.995      45.608    -276.678
  O       99.040      45.597    -274.974
  H       98.299      52.912    -277.843
  H       99.750      45.474    -274.297
  H      103.277      54.115    -274.039
  H      104.111      50.134    -275.132
  H      101.676      49.822    -275.488
  H       99.238      52.457    -274.637
  H      100.247      52.147    -277.314
  H       99.992      49.820    -277.215
  H       97.406      50.216    -275.632
  H       98.307      48.039    -274.585
  H       97.565      47.903    -276.199
  P       98.846      49.382    -279.514
  C       96.399      49.814    -280.287
  O       97.617      49.120    -280.523
  O       99.853      48.295    -279.309
  O       99.607      50.614    -280.228
  H      100.394      50.250    -280.679
  H       95.682      49.540    -281.033
  H       96.575      50.868    -280.332
  H       96.023      49.556    -279.319

 6  7  8  9  10  11  12  13  14  15  16  26  31  32  33  34  35 0
 6-311+G(2d,p)
 ****
 36  37 0
 6-311+G(2d,p)
 ****
 1  2  3  4  5  17  18  19  20  21  22  23  24  25 0
 3-21G
 ****
 27  28  29  30  38  39  40  41  42  43  44  45 0
 3-21G
 ****


