%nproc=1
%NoSave
%Mem=1900MB
#P OB98/GEN NMR

erre ene a

0 1
  C      884.371     -55.709     341.430
  O      884.018     -56.864     340.689
  H      883.781     -55.686     342.355
  H      884.146     -54.813     340.845
  H      885.431     -55.729     341.691
  P      884.916     -57.195     339.399
  C      886.435     -58.653     340.921
  O      886.364     -57.611     339.947
  C      887.125     -59.888     340.326
  O      888.508     -59.577     340.004
  C      887.167     -61.089     341.259
  O      885.950     -61.831     341.214
  C      888.319     -61.879     340.642
  O      887.854     -62.554     339.451
  C      889.300     -60.762     340.279
  N      894.112     -61.312     341.774
  C      893.480     -61.778     340.638
  N      894.235     -62.507     339.776
  N      892.222     -61.559     340.361
  C      891.590     -60.830     341.314
  C      892.105     -60.308     342.477
  C      893.508     -60.552     342.765
  O      894.124     -60.138     343.742
  N      891.155     -59.616     343.187
  C      890.064     -59.733     342.462
  N      890.269     -60.469     341.323
  O      885.180     -55.749     338.747
  O      884.304     -58.129     338.413
  H      887.389     -61.894     338.904
  H      885.185     -55.840     337.774
  H      895.092     -61.516     341.939
  H      889.107     -59.303     342.722
  H      889.870     -60.997     339.368
  H      888.701     -62.647     341.314
  H      895.199     -62.742     339.955
  H      887.432     -60.802     342.287
  H      893.800     -62.836     338.928
  H      886.621     -60.132     339.385
  H      885.424     -58.930     341.228
  H      886.995     -58.293     341.794
  P      884.861     -61.540     342.362
  C      883.140     -60.420     340.775
  O      884.043     -60.256     341.868
  O      885.759     -60.967     343.565
  O      884.050     -62.726     342.775
  H      885.289     -61.095     344.413
  H      882.669     -59.484     340.558
  H      882.395     -61.143     341.033
  H      883.679     -60.756     339.914

 6  7  8  9  10  11  12  13  14  15  26  29  33  34 0
 6-311+G(2d,p)
 ****
 36  38  39  40  41 0
 6-311+G(2d,p)
 ****
 1  2  3  4  5  16  17  18  19  20  21  22  23  24  25 0
 3-21G
 ****
 27  28  30  31  32  35  37  42  43  44  45  46  47 0
 3-21G
 ****
 48  49 0
 3-21G
 ****


