%nproc=1
%NoSave
%Mem=1900MB
#P OB98/GEN NMR

erre ene a

0 1
  C       75.504     191.324    -137.013
  O       74.538     192.181    -137.630
  P       73.192     192.483    -136.813
  C       73.752     194.636    -135.463
  O       73.081     194.063    -136.579
  C       73.182     196.024    -135.162
  O       73.286     196.338    -133.760
  C       73.920     197.144    -135.877
  O       73.525     197.214    -137.232
  C       73.520     198.364    -135.054
  O       72.322     198.976    -135.560
  C       73.282     197.772    -133.645
  N       74.261     198.228    -132.673
  C       74.295     199.607    -132.438
  O       73.539     200.359    -133.054
  N       75.199     200.096    -131.530
  C       76.015     199.284    -130.930
  N       76.891     199.828    -130.046
  C       76.032     197.827    -131.172
  C       75.138     197.372    -132.047
  O       73.514     191.914    -135.351
  O       71.974     191.842    -137.397
  H       72.042     199.615    -134.872
  H       72.703     191.568    -134.938
  H       76.733     197.192    -130.654
  H       75.077     196.315    -132.286
  H       72.287     198.053    -133.278
  H       74.299     199.132    -135.075
  H       75.004     196.985    -135.801
  H       72.120     196.033    -135.447
  H       76.855     200.831    -129.907
  H       74.823     194.710    -135.666
  H       77.574     199.292    -129.530
  H       73.640     193.970    -134.602
  P       74.675     197.193    -138.345
  C       74.644     194.796    -139.266
  O       74.180     196.122    -139.434
  O       75.848     196.390    -137.602
  O       75.145     198.507    -138.872
  H       76.651     196.388    -138.150
  H       74.078     194.142    -139.933
  H       74.495     194.462    -138.236
  H       75.703     194.737    -139.531
  H       76.346     191.209    -137.663
  H       75.064     190.367    -136.827
  H       75.824     191.755    -136.088

 3  4  5  6  7  8  9  10  11  12  13  21  23  27  28  29  30  32 0
 6-311+G(2d,p)
 ****
 34  35 0
 6-311+G(2d,p)
 ****
 1  2  14  15  16  17  18  19  20  22  24  25  26 0
 3-21G
 ****
 31  33  36  37  38  39  40  41  42  43  44  45  46 0
 3-21G
 ****


