%nproc=1
%NoSave
%Mem=1900MB
#P OB98/GEN NMR

erre ene a

0 1
  C      -61.009    -225.830      96.224
  O      -60.767    -224.440      96.064
  P      -62.030    -223.450      96.130
  C      -64.311    -223.722      94.906
  O      -62.893    -223.729      94.807
  C      -64.937    -223.963      93.537
  O      -64.602    -225.276      93.041
  C      -66.461    -223.909      93.527
  O      -66.953    -222.580      93.485
  C      -66.770    -224.634      92.228
  O      -66.598    -223.742      91.112
  C      -65.695    -225.727      92.209
  N      -68.320    -229.889      91.015
  C      -67.853    -228.876      90.204
  N      -68.184    -228.955      88.893
  N      -67.127    -227.876      90.628
  C      -66.879    -227.926      91.961
  C      -67.284    -228.879      92.867
  C      -68.104    -229.971      92.384
  O      -68.591    -230.869      93.066
  N      -66.835    -228.591      94.131
  C      -66.153    -227.470      93.990
  N      -66.188    -227.002      92.702
  O      -61.387    -222.011      95.854
  O      -62.788    -223.493      97.414
  H      -67.173    -222.970      91.283
  H      -62.005    -221.309      96.136
  H      -68.885    -230.633      90.639
  H      -65.639    -226.957      94.792
  H      -65.295    -225.890      91.203
  H      -67.798    -225.007      92.185
  H      -68.793    -229.664      88.514
  H      -66.882    -224.473      94.370
  H      -67.907    -228.190      88.286
  H      -64.522    -223.221      92.841
  H      -64.639    -222.758      95.300
  H      -64.624    -224.502      95.607
  P      -68.549    -222.400      93.507
  C      -70.425    -222.747      91.742
  O      -69.034    -222.715      92.016
  O      -68.732    -220.817      93.648
  O      -69.239    -223.149      94.600
  H      -69.584    -220.609      94.078
  H      -70.573    -222.704      90.658
  H      -70.935    -221.892      92.196
  H      -70.856    -223.674      92.120
  H      -60.084    -226.363      96.158
  H      -61.671    -226.168      95.454
  H      -61.455    -226.007      97.181

 3  4  5  6  7  8  9  10  11  12  23  26  30  31 0
 6-311+G(2d,p)
 ****
 33  35  36  37  38 0
 6-311+G(2d,p)
 ****
 1  2  13  14  15  16  17  18  19  20  21  22  24  25 0
 3-21G
 ****
 27  28  29  32  34  39  40  41  42  43  44  45  46  47  48  49 0
 3-21G
 ****


