%nproc=1
%NoSave
%Mem=1900MB
#P OB98/GEN NMR

erre ene a

0 1
  C      -15.495    -115.658     186.611
  O      -14.689    -115.275     187.703
  H      -15.614    -114.798     185.947
  H      -16.481    -115.961     186.973
  H      -15.043    -116.478     186.047
  P      -13.982    -116.415     188.574
  C      -15.324    -115.684     190.654
  O      -14.942    -116.765     189.813
  C      -16.179    -116.158     191.829
  O      -17.552    -116.302     191.405
  C      -15.737    -117.522     192.365
  O      -14.712    -117.466     193.342
  C      -17.034    -118.061     192.963
  O      -17.192    -117.646     194.330
  C      -18.119    -117.432     192.082
  N      -21.176    -121.443     191.243
  C      -20.749    -120.916     192.447
  N      -21.163    -121.564     193.557
  N      -19.979    -119.864     192.539
  C      -19.567    -119.385     191.344
  C      -19.906    -119.836     190.087
  C      -20.819    -120.955     189.995
  O      -21.239    -121.448     188.954
  N      -19.260    -119.125     189.104
  C      -18.469    -118.308     189.770
  N      -18.679    -118.373     191.127
  O      -12.770    -115.641     189.286
  O      -13.473    -117.594     187.802
  H      -17.387    -116.689     194.333
  H      -12.025    -116.254     189.420
  H      -21.791    -122.237     191.235
  H      -17.763    -117.619     189.321
  H      -18.955    -117.056     192.685
  H      -17.037    -119.154     192.964
  H      -21.684    -122.426     193.542
  H      -15.439    -118.182     191.545
  H      -20.721    -121.326     194.447
  H      -16.166    -115.394     192.617
  H      -15.894    -114.993     190.032
  H      -14.440    -115.151     191.014
  P      -14.096    -118.802     193.965
  C      -14.259    -118.289     196.534
  O      -14.721    -119.016     195.417
  O      -12.580    -118.394     194.271
  O      -14.186    -120.015     193.098
  H      -11.989    -118.711     193.562
  H      -14.809    -118.583     197.403
  H      -14.399    -117.242     196.361
  H      -13.219    -118.490     196.685

 6  7  8  9  10  11  12  13  14  15  26  29  33  34 0
 6-311+G(2d,p)
 ****
 36  38  39  40  41 0
 6-311+G(2d,p)
 ****
 1  2  3  4  5  16  17  18  19  20  21  22  23  24  25 0
 3-21G
 ****
 27  28  30  31  32  35  37  42  43  44  45  46  47 0
 3-21G
 ****
 48  49 0
 3-21G
 ****


