%nproc=1
%NoSave
%Mem=1900MB
#P OB98/GEN NMR

erre ene a

0 1
  C      395.901     143.710    -475.239
  O      395.672     142.296    -475.315
  P      396.974     141.346    -475.262
  C      396.211     139.661    -477.082
  O      396.544     139.864    -475.716
  C      395.893     138.183    -477.380
  O      397.052     137.346    -477.131
  C      394.726     137.631    -476.548
  O      394.042     136.684    -477.366
  C      395.446     136.893    -475.424
  O      394.590     135.926    -474.825
  C      396.663     136.320    -476.192
  N      397.753     135.940    -475.306
  C      397.499     134.938    -474.367
  O      396.356     134.460    -474.254
  N      398.514     134.515    -473.540
  C      399.679     135.085    -473.610
  N      400.641     134.633    -472.776
  C      399.979     136.189    -474.554
  C      398.997     136.549    -475.358
  O      397.263     141.199    -473.692
  O      398.154     141.919    -475.985
  H      394.970     135.667    -473.955
  H      398.198     141.385    -473.505
  H      400.966     136.655    -474.566
  H      399.121     137.354    -476.080
  H      396.367     135.431    -476.764
  H      395.776     137.597    -474.648
  H      394.042     138.404    -476.200
  H      395.651     138.110    -478.440
  H      400.407     133.872    -472.143
  H      397.047     139.983    -477.707
  H      401.581     135.005    -472.737
  H      395.369     140.303    -477.341
  P      392.678     137.136    -478.060
  C      390.957     135.535    -477.003
  O      391.784     135.802    -478.139
  O      393.137     137.269    -479.607
  O      391.998     138.376    -477.576
  H      392.401     137.627    -480.135
  H      390.324     134.676    -477.235
  H      390.325     136.397    -476.788
  H      391.585     135.283    -476.136
  H      394.965     144.226    -475.284
  H      396.517     144.016    -476.059
  H      396.392     143.943    -474.317

 3  4  5  6  7  8  9  10  11  12  13  21  23  27  28  29  30  32 0
 6-311+G(2d,p)
 ****
 34  35 0
 6-311+G(2d,p)
 ****
 1  2  14  15  16  17  18  19  20  22  24  25  26 0
 3-21G
 ****
 31  33  36  37  38  39  40  41  42  43  44  45  46 0
 3-21G
 ****


