%nproc=1
%NoSave
%Mem=1900MB
#P OB98/GEN NMR

erre ene a

0 1
  C      104.453    -148.857    -166.622
  O      105.755    -149.000    -166.082
  P      106.737    -150.052    -166.794
  C      106.470    -152.506    -167.620
  O      105.930    -151.436    -166.847
  C      105.993    -153.848    -167.080
  O      104.613    -154.060    -167.432
  C      106.746    -155.042    -167.636
  O      108.005    -155.174    -167.007
  C      105.778    -156.180    -167.329
  O      105.983    -156.687    -165.999
  C      104.398    -155.489    -167.450
  N      103.671    -155.905    -168.637
  C      103.138    -157.200    -168.602
  O      103.320    -157.915    -167.614
  N      102.454    -157.659    -169.699
  C      102.317    -156.896    -170.737
  N      101.625    -157.401    -171.796
  C      102.880    -155.535    -170.822
  C      103.544    -155.109    -169.749
  O      107.858    -150.312    -165.686
  O      107.315    -149.589    -168.091
  H      106.697    -157.352    -166.078
  H      108.699    -150.583    -166.099
  H      102.738    -154.939    -171.713
  H      103.988    -154.120    -169.726
  H      103.782    -155.719    -166.573
  H      105.909    -157.022    -168.015
  H      106.873    -154.948    -168.722
  H      106.064    -153.822    -165.983
  H      101.258    -158.343    -171.710
  H      107.562    -152.470    -167.568
  H      101.445    -156.880    -172.641
  H      106.166    -152.374    -168.663
  P      109.179    -155.885    -167.831
  C      108.963    -158.158    -168.998
  O      108.829    -157.447    -167.781
  O      110.416    -155.784    -166.814
  O      109.510    -155.320    -169.171
  H      111.229    -156.102    -167.247
  H      108.851    -159.225    -168.794
  H      109.948    -157.986    -169.438
  H      108.181    -157.850    -169.699
  H      103.910    -148.130    -166.056
  H      103.943    -149.797    -166.578
  H      104.523    -148.537    -167.641

 3  4  5  6  7  8  9  10  11  12  13  21  23  27  28  29  30  32 0
 6-311+G(2d,p)
 ****
 34  35 0
 6-311+G(2d,p)
 ****
 1  2  14  15  16  17  18  19  20  22  24  25  26 0
 3-21G
 ****
 31  33  36  37  38  39  40  41  42  43  44  45  46 0
 3-21G
 ****


