%nproc=1
%NoSave
%Mem=1900MB
#P OB98/GEN NMR

erre ene a

0 1
  C      415.599    -255.211     265.362
  O      415.569    -254.000     266.088
  P      415.770    -252.611     265.325
  C      417.732    -251.182     264.474
  O      417.345    -252.315     265.240
  C      419.024    -250.579     265.033
  O      420.168    -251.334     264.568
  C      419.275    -249.139     264.588
  O      418.458    -248.238     265.304
  C      420.762    -249.006     264.861
  O      421.010    -248.728     266.252
  C      421.286    -250.417     264.509
  N      425.634    -249.815     261.894
  C      425.304    -249.535     263.184
  N      424.107    -249.688     263.786
  C      423.189    -250.164     262.928
  C      423.380    -250.467     261.581
  C      424.671    -250.298     261.071
  N      425.043    -250.643     259.793
  N      422.188    -250.908     261.023
  C      421.308    -250.858     262.011
  N      421.894    -250.482     263.190
  O      414.940    -251.469     265.829
  O      415.389    -252.955     263.803
  H      420.715    -247.808     266.421
  H      414.630    -252.395     263.521
  H      426.102    -249.134     263.799
  H      420.261    -251.107     261.919
  H      422.023    -250.774     265.234
  H      421.235    -248.207     264.283
  H      419.095    -249.047     263.506
  H      418.983    -250.642     266.126
  H      416.930    -250.435     264.519
  H      426.026    -250.616     259.579
  H      424.435    -251.277     259.266
  H      417.870    -251.488     263.422
  P      417.704    -247.051     264.537
  C      418.448    -245.042     263.130
  O      418.819    -245.981     264.123
  O      416.495    -246.501     265.215
  O      417.315    -247.718     263.123
  H      416.477    -247.334     262.805
  H      418.496    -245.520     262.146
  H      419.145    -244.194     263.155
  H      417.438    -244.659     263.303
  H      415.448    -256.032     266.031
  H      416.548    -255.314     264.880
  H      414.823    -255.204     264.625

 3  4  5  6  7  8  9  10  11  12  22  25  29  30  31  32 0
 6-311+G(2d,p)
 ****
 33  36  37 0
 6-311+G(2d,p)
 ****
 1  2  13  14  15  16  17  18  19  20  21  23  24  26 0
 3-21G
 ****
 27  28  34  35  38  39  40  41  42  43  44  45  46  47  48 0
 3-21G
 ****


