%nproc=1
%NoSave
%Mem=1900MB
#P OB98/GEN NMR

erre ene a

0 1
  C      -40.350     -34.216      35.862
  O      -39.363     -35.079      35.337
  H      -39.893     -33.588      36.633
  H      -41.149     -34.802      36.322
  H      -40.763     -33.569      35.083
  P      -39.685     -35.911      34.006
  C      -39.648     -34.206      32.066
  O      -38.909     -35.161      32.815
  C      -38.707     -33.409      31.161
  O      -37.610     -32.895      31.979
  C      -38.090     -34.248      30.023
  O      -37.922     -33.408      28.874
  C      -36.737     -34.601      30.608
  O      -35.817     -34.980      29.616
  C      -36.386     -33.309      31.341
  N      -35.300     -33.513      32.298
  C      -34.004     -33.355      31.819
  O      -33.738     -33.069      30.653
  N      -33.000     -33.613      32.713
  C      -33.159     -34.108      33.973
  O      -32.225     -34.394      34.704
  C      -34.553     -34.307      34.408
  C      -35.545     -33.999      33.568
  O      -41.128     -36.179      33.736
  O      -38.834     -37.259      34.165
  H      -35.871     -34.363      28.859
  H      -39.200     -37.960      33.594
  H      -32.054     -33.492      32.383
  H      -34.719     -34.712      35.398
  H      -36.583     -34.148      33.848
  H      -36.098     -32.523      30.633
  H      -36.838     -35.438      31.309
  H      -38.688     -35.122      29.762
  H      -39.242     -32.537      30.765
  H      -40.150     -33.532      32.770
  H      -40.403     -34.720      31.463
  P      -39.142     -33.064      27.889
  C      -39.389     -30.566      28.425
  O      -39.075     -31.526      27.422
  O      -40.482     -33.486      28.403
  O      -38.801     -33.872      26.545
  H      -39.604     -34.330      26.233
  H      -39.315     -29.582      28.012
  H      -38.702     -30.664      29.240
  H      -40.386     -30.731      28.777

 6  7  8  9  10  11  12  13  14  15  16  26  31  32  33  34  35 0
 6-311+G(2d,p)
 ****
 36  37 0
 6-311+G(2d,p)
 ****
 1  2  3  4  5  17  18  19  20  21  22  23  24  25 0
 3-21G
 ****
 27  28  29  30  38  39  40  41  42  43  44  45 0
 3-21G
 ****


