%nproc=1
%NoSave
%Mem=1900MB
#P OB98/GEN NMR

erre ene a

0 1
  C      -87.097     383.978     301.973
  O      -88.052     383.353     301.135
  P      -88.065     383.745     299.582
  C      -90.144     384.941     298.556
  O      -89.020     385.019     299.425
  C      -91.394     384.577     299.361
  O      -91.513     385.442     300.517
  C      -92.692     384.758     298.587
  O      -92.922     383.673     297.701
  C      -93.712     384.850     299.711
  O      -94.095     383.540     300.168
  C      -92.917     385.594     300.808
  N      -93.298     386.996     300.917
  C      -94.583     387.245     301.402
  O      -95.367     386.344     301.701
  N      -94.945     388.558     301.494
  C      -94.191     389.631     301.105
  O      -94.589     390.786     301.159
  C      -92.847     389.307     300.571
  C      -92.478     388.027     300.497
  O      -88.888     382.562     298.890
  O      -86.713     383.908     298.975
  H      -94.731     383.676     300.901
  H      -88.518     382.373     298.007
  H      -95.856     388.761     301.863
  H      -92.231     390.134     300.252
  H      -91.508     387.766     300.096
  H      -93.079     385.121     301.779
  H      -94.629     385.359     299.396
  H      -92.675     385.708     298.039
  H      -91.291     383.544     299.719
  H      -89.956     384.171     297.801
  H      -90.274     385.898     298.050
  P      -93.760     383.981     296.371
  C      -96.305     383.423     296.584
  O      -95.248     384.303     296.884
  O      -93.848     382.520     295.725
  O      -93.121     385.008     295.500
  H      -93.880     381.822     296.404
  H      -95.978     382.378     296.581
  H      -96.720     383.672     295.603
  H      -97.090     383.542     297.332
  H      -87.211     383.618     302.974
  H      -87.247     385.037     301.956
  H      -86.112     383.751     301.622

 3  4  5  6  7  8  9  10  11  12  13  23  28  29  30  31  32 0
 6-311+G(2d,p)
 ****
 33  34 0
 6-311+G(2d,p)
 ****
 1  2  14  15  16  17  18  19  20  21  22  24  25  26 0
 3-21G
 ****
 27  35  36  37  38  39  40  41  42  43  44  45 0
 3-21G
 ****


