%nproc=1
%NoSave
%Mem=1900MB
#P OB98/GEN NMR

erre ene a

0 1
  C     -612.417    -422.096       7.602
  O     -612.056    -423.038       6.598
  P     -611.226    -424.340       7.029
  C     -612.430    -426.262       5.667
  O     -612.148    -425.637       6.899
  C     -613.942    -426.209       5.406
  O     -614.383    -424.839       5.284
  C     -614.362    -426.928       4.126
  O     -614.579    -428.312       4.341
  C     -615.610    -426.169       3.733
  O     -616.728    -426.596       4.534
  C     -615.213    -424.719       4.089
  N     -614.472    -423.932       3.080
  C     -614.950    -423.854       1.774
  O     -615.978    -424.400       1.381
  N     -614.212    -423.091       0.906
  C     -613.168    -422.280       1.236
  O     -612.581    -421.572       0.426
  C     -612.791    -422.286       2.653
  C     -613.436    -423.105       3.488
  O     -611.035    -424.162       8.606
  O     -609.917    -424.497       6.320
  H     -616.445    -426.556       5.467
  H     -610.091    -424.054       8.823
  H     -614.505    -423.078      -0.052
  H     -611.997    -421.622       2.969
  H     -613.162    -423.116       4.544
  H     -616.096    -424.130       4.364
  H     -615.889    -426.372       2.701
  H     -613.612    -426.769       3.342
  H     -614.460    -426.654       6.266
  H     -612.088    -427.298       5.668
  H     -611.888    -425.754       4.861
  P     -613.510    -429.380       3.813
  C     -613.557    -431.146       5.672
  O     -612.869    -430.035       5.129
  O     -612.537    -428.889       2.798
  O     -614.423    -430.570       3.245
  H     -614.549    -430.481       2.273
  H     -612.938    -431.591       6.459
  H     -613.744    -431.897       4.898
  H     -614.505    -430.822       6.106
  H     -612.963    -421.291       7.156
  H     -611.532    -421.713       8.066
  H     -613.027    -422.576       8.338

 3  4  5  6  7  8  9  10  11  12  13  23  28  29  30  31  32 0
 6-311+G(2d,p)
 ****
 33  34 0
 6-311+G(2d,p)
 ****
 1  2  14  15  16  17  18  19  20  21  22  24  25  26  27 0
 3-21G
 ****
 35  36  37  38  39  40  41  42  43  44  45 0
 3-21G
 ****


