%nproc=1
%NoSave
%Mem=1900MB
#P OB98/GEN NMR

erre ene a

0 1
  C      185.798     120.337      53.320
  O      186.026     119.220      52.484
  H      186.699     120.958      53.329
  H      185.588     120.003      54.340
  H      184.961     120.931      52.943
  P      184.774     118.265      52.192
  C      183.489     116.412      53.540
  O      184.510     117.403      53.523
  C      183.791     115.373      54.618
  O      184.987     114.631      54.307
  C      184.077     115.970      55.986
  O      182.924     116.500      56.604
  C      184.658     114.757      56.699
  O      183.621     113.865      57.131
  C      185.498     114.113      55.568
  N      186.924     114.367      55.717
  C      187.560     113.671      56.753
  O      186.921     112.892      57.464
  N      188.896     113.898      56.975
  C      189.546     114.724      56.214
  N      190.865     114.910      56.493
  C      188.921     115.457      55.096
  C      187.621     115.238      54.911
  O      185.386     117.183      51.186
  O      183.549     118.956      51.686
  H      184.053     113.199      57.704
  H      186.190     116.751      51.519
  H      189.503     116.130      54.483
  H      187.084     115.735      54.114
  H      185.344     113.025      55.546
  H      185.228     115.037      57.587
  H      184.867     116.726      55.911
  H      182.949     114.668      54.654
  H      191.255     114.407      57.280
  H      183.390     115.936      52.560
  H      191.462     115.554      55.991
  H      182.542     116.917      53.758
  P      183.028     117.791      57.548
  C      184.512     118.350      59.578
  O      183.829     117.326      58.861
  O      181.733     118.481      57.825
  O      184.108     118.709      56.800
  H      184.984     118.299      56.690
  H      185.005     117.923      60.426
  H      183.808     119.085      59.907
  H      185.236     118.811      58.939

 6  7  8  9  10  11  12  13  14  15  16  26  30  31  32  33  35 0
 6-311+G(2d,p)
 ****
 37  38 0
 6-311+G(2d,p)
 ****
 1  2  3  4  5  17  18  19  20  21  22  23  24  25 0
 3-21G
 ****
 27  28  29  34  36  39  40  41  42  43  44  45  46 0
 3-21G
 ****


