%nproc=1
%NoSave
%Mem=1900MB
#P OB98/GEN NMR

erre ene a

0 1
  C     -898.305       6.732    -892.860
  O     -898.335       7.701    -891.860
  H     -899.325       6.403    -893.090
  H     -897.725       5.861    -892.550
  H     -897.885       7.149    -893.800
  P     -897.005       8.551    -891.620
  C     -897.595      10.176    -893.540
  O     -896.635       9.288    -893.020
  C     -897.235      10.552    -895.000
  O     -895.985      11.332    -894.990
  C     -896.985       9.342    -895.910
  O     -897.535       9.623    -897.210
  C     -895.485       9.220    -895.980
  O     -895.035       8.579    -897.170
  C     -895.075      10.710    -895.910
  N     -890.255      10.524    -897.350
  C     -891.425      10.418    -898.090
  N     -891.265      10.245    -899.420
  N     -892.615      10.492    -897.570
  C     -892.605      10.711    -896.260
  C     -891.545      10.810    -895.390
  C     -890.205      10.714    -895.970
  O     -889.145      10.759    -895.370
  N     -891.945      11.000    -894.090
  C     -893.255      11.004    -894.140
  N     -893.735      10.839    -895.440
  O     -895.855       7.419    -891.500
  O     -896.995       9.445    -890.420
  H     -895.185       9.198    -897.920
  H     -895.475       7.421    -890.590
  H     -889.355      10.433    -897.790
  H     -893.935      11.122    -893.300
  H     -895.155      11.209    -896.860
  H     -895.105       8.665    -895.140
  H     -890.375      10.245    -899.880
  H     -897.475       8.416    -895.510
  H     -892.115      10.227    -900.000
  H     -898.035      11.214    -895.400
  H     -897.605      11.093    -892.940
  H     -898.605       9.711    -893.540
  P     -899.115       9.478    -897.400
  C     -899.435      12.001    -897.850
  O     -899.845      10.880    -897.100
  O     -899.565       8.520    -896.130
  O     -899.525       8.824    -898.690
  H     -899.765       7.651    -896.460
  H     -900.000      12.858    -897.548
  H     -899.599      11.814    -898.891
  H     -898.394      12.182    -897.680

 6  7  8  9  10  11  12  13  14  15  26  29  33  34 0
 6-311+G(2d,p)
 ****
 36  38  39  40  41 0
 6-311+G(2d,p)
 ****
 1  2  3  4  5  16  17  18  19  20  21  22  23  24  25 0
 3-21G
 ****
 27  28  30  31  32  35  37  42  43  44  45  46  47 0
 3-21G
 ****
 48  49 0
 3-21G
 ****


