%nproc=1
%NoSave
%Mem=1900MB
#P OB98/GEN NMR

erre ene a

0 1
  C     -289.195     436.070    -137.727
  O     -289.562     437.104    -136.834
  H     -290.068     435.467    -137.987
  H     -288.794     436.519    -138.642
  H     -288.423     435.438    -137.279
  P     -290.168     436.657    -135.418
  C     -288.151     437.477    -133.998
  O     -288.903     436.364    -134.475
  C     -286.689     437.072    -133.837
  O     -286.102     436.802    -135.130
  C     -285.810     438.140    -133.202
  O     -285.923     438.158    -131.788
  C     -284.434     437.668    -133.640
  O     -284.021     436.554    -132.826
  C     -284.706     437.204    -135.078
  N     -281.616     438.769    -138.845
  C     -281.565     437.702    -138.023
  N     -282.424     437.358    -137.041
  C     -283.422     438.251    -136.948
  C     -283.601     439.396    -137.710
  C     -282.641     439.644    -138.710
  N     -282.681     440.744    -139.540
  N     -284.724     440.086    -137.299
  C     -285.229     439.355    -136.327
  N     -284.471     438.244    -136.073
  O     -290.750     435.190    -135.704
  O     -291.189     437.573    -134.833
  H     -284.252     436.782    -131.903
  H     -291.415     434.958    -135.028
  H     -280.718     437.033    -138.171
  H     -286.135     439.586    -135.782
  H     -284.100     436.339    -135.361
  H     -283.665     438.438    -133.547
  H     -286.002     439.133    -133.632
  H     -286.655     436.141    -133.254
  H     -288.550     437.789    -133.029
  H     -281.855     440.922    -140.086
  H     -283.353     441.468    -139.342
  H     -288.244     438.303    -134.710
  P     -286.760     439.357    -131.128
  C     -288.133     437.678    -129.691
  O     -288.154     438.718    -130.666
  O     -287.160     440.256    -132.389
  O     -286.023     440.135    -130.086
  H     -287.300     441.188    -132.125
  H     -289.134     437.358    -129.489
  H     -287.687     438.043    -128.790
  H     -287.563     436.852    -130.062

 6  7  8  9  10  11  12  13  14  15  25  28  32  33  34  35 0
 6-311+G(2d,p)
 ****
 36  39  40 0
 6-311+G(2d,p)
 ****
 1  2  3  4  5  16  17  18  19  20  21  22  23  24 0
 3-21G
 ****
 26  27  29  30  31  37  38  41  42  43  44  45  46  47 0
 3-21G
 ****
 48 0
 3-21G
 ****


