%nproc=1
%NoSave
%Mem=1900MB
#P OB98/GEN NMR

erre ene a

0 1
  C     -897.170    -214.802    -153.615
  O     -896.470    -214.121    -154.612
  H     -898.140    -214.324    -153.465
  H     -896.620    -214.774    -152.672
  H     -897.340    -215.847    -153.917
  P     -895.010    -214.694    -155.003
  C     -896.240    -216.201    -156.736
  O     -895.250    -216.115    -155.704
  C     -895.550    -216.176    -158.099
  O     -894.650    -217.305    -158.226
  C     -896.500    -216.297    -159.273
  O     -897.180    -215.067    -159.565
  C     -895.590    -216.765    -160.381
  O     -894.890    -215.656    -160.976
  C     -894.580    -217.647    -159.616
  N     -892.550    -222.324    -160.029
  C     -892.000    -221.094    -159.766
  N     -892.610    -219.914    -159.668
  C     -893.940    -220.068    -159.829
  C     -894.650    -221.234    -160.069
  C     -893.890    -222.403    -160.165
  N     -894.450    -223.630    -160.441
  N     -895.990    -220.955    -160.217
  C     -896.100    -219.670    -160.028
  N     -894.890    -219.067    -159.799
  O     -894.390    -215.065    -153.568
  O     -894.140    -213.749    -155.764
  H     -895.520    -215.221    -161.571
  H     -893.780    -214.373    -153.281
  H     -890.920    -221.116    -159.645
  H     -897.030    -219.107    -160.087
  H     -893.560    -217.500    -159.953
  H     -896.130    -217.293    -161.168
  H     -897.250    -217.097    -159.071
  H     -894.960    -215.261    -158.170
  H     -896.930    -215.338    -156.655
  H     -896.810    -217.122    -156.596
  H     -893.840    -224.425    -160.565
  H     -895.440    -223.679    -160.679
  P     -898.790    -215.066    -159.553
  C     -898.880    -214.275    -157.068
  O     -899.240    -215.264    -158.031
  O     -899.190    -216.475    -160.221
  O     -899.410    -213.921    -160.261
  H     -900.000    -216.370    -160.747
  H     -899.256    -214.559    -156.107
  H     -899.300    -213.332    -157.351
  H     -897.814    -214.192    -157.023

 6  7  8  9  10  11  12  13  14  15  25  28  32  33  34  35 0
 6-311+G(2d,p)
 ****
 36  37  40 0
 6-311+G(2d,p)
 ****
 1  2  3  4  5  16  17  18  19  20  21  22  23  24 0
 3-21G
 ****
 26  27  29  30  31  38  39 41  42  43  44  45  46  47  48 0
 3-21G
 ****


