%nproc=1
%NoSave
%Mem=1900MB
#P OB98/GEN NMR

erre ene a

0 1
  C     -238.712    -509.853     390.721
  O     -237.645    -510.617     390.153
  P     -237.162    -510.208     388.675
  C     -234.668    -510.821     389.016
  O     -235.869    -511.078     388.298
  C     -233.713    -512.023     388.977
  O     -234.197    -513.099     389.831
  C     -233.524    -512.610     387.571
  O     -232.175    -513.087     387.491
  C     -234.465    -513.796     387.566
  O     -234.099    -514.743     386.560
  C     -234.311    -514.294     389.018
  N     -235.420    -515.137     389.457
  C     -235.543    -516.386     388.850
  O     -234.782    -516.714     387.926
  N     -236.549    -517.233     389.250
  C     -237.396    -516.836     390.159
  N     -238.376    -517.714     390.512
  C     -237.342    -515.497     390.784
  C     -236.339    -514.712     390.392
  O     -236.586    -508.723     388.873
  O     -238.267    -510.233     387.664
  H     -234.573    -515.583     386.745
  H     -236.964    -508.126     388.202
  H     -238.078    -515.204     391.515
  H     -236.212    -513.722     390.798
  H     -233.389    -514.866     389.129
  H     -235.495    -513.467     387.378
  H     -233.715    -511.886     386.771
  H     -232.742    -511.700     389.375
  H     -238.373    -518.623     390.063
  H     -234.904    -510.586     390.055
  H     -239.082    -517.507     391.201
  H     -234.190    -509.926     388.603
  P     -231.096    -512.175     386.735
  C     -229.499    -512.419     388.738
  O     -229.679    -512.629     387.343
  O     -231.316    -510.751     387.449
  O     -231.177    -512.054     385.248
  H     -230.748    -510.084     387.019
  H     -228.554    -512.881     389.036
  H     -230.323    -512.888     389.299
  H     -229.457    -511.351     388.955
  H     -238.935    -510.225     391.699
  H     -239.580    -509.937     390.101
  H     -238.419    -508.826     390.788

 3  4  5  6  7  8  9  10  11  12  13  21  23  27  28  29  30  32 0
 6-311+G(2d,p)
 ****
 34  35 0
 6-311+G(2d,p)
 ****
 1  2  14  15  16  17  18  19  20  22  24  25  26 0
 3-21G
 ****
 31  33  36  37  38  39  40  41  42  43  44  45  46 0
 3-21G
 ****


