%nproc=1
%NoSave
%Mem=1900MB
#P OB98/GEN NMR

erre ene a

0 1
  C      513.007    -396.705      41.854
  O      512.306    -396.835      43.074
  H      512.284    -396.646      41.038
  H      513.653    -397.573      41.692
  H      513.607    -395.791      41.862
  P      513.197    -397.051      44.393
  C      510.799    -396.919      45.412
  O      512.115    -397.442      45.517
  C      509.938    -397.444      46.555
  O      510.643    -397.340      47.815
  C      508.630    -396.687      46.765
  O      507.626    -397.030      45.827
  C      508.279    -397.152      48.165
  O      507.789    -398.505      48.117
  C      509.659    -397.080      48.853
  N      509.915    -395.786      49.494
  C      509.373    -395.602      50.771
  O      508.717    -396.492      51.311
  N      509.558    -394.392      51.397
  C      510.242    -393.457      50.813
  N      510.388    -392.282      51.482
  C      510.840    -393.617      49.475
  C      510.642    -394.788      48.881
  O      513.611    -395.561      44.808
  O      514.340    -398.001      44.264
  H      507.441    -398.706      49.004
  H      514.043    -395.569      45.699
  H      511.392    -392.802      49.021
  H      511.051    -394.979      47.894
  H      509.765    -397.869      49.608
  H      507.503    -396.551      48.640
  H      508.794    -395.602      46.782
  H      509.754    -398.509      46.373
  H      509.917    -392.185      52.371
  H      510.381    -397.234      44.449
  H      510.771    -391.449      51.051
  H      510.826    -395.826      45.449
  P      507.209    -395.909      44.752
  C      505.526    -397.640      43.778
  O      505.754    -396.304      44.211
  O      508.166    -396.223      43.509
  O      507.352    -394.499      45.229
  H      508.418    -395.399      43.048
  H      504.513    -397.740      43.449
  H      505.706    -398.314      44.590
  H      506.188    -397.871      42.970

 6  7  8  9  10  11  12  13  14  15  16  26  30  31  32  33  35 0
 6-311+G(2d,p)
 ****
 37  38 0
 6-311+G(2d,p)
 ****
 1  2  3  4  5  17  18  19  20  21  22  23  24  25 0
 3-21G
 ****
 27  28  29  34  36  39  40  41  42  43  44  45  46 0
 3-21G
 ****


