%nproc=1
%NoSave
%Mem=1900MB
#P OB98/GEN NMR

erre ene a

0 1
  C     -143.662     278.152     -93.523
  O     -142.688     277.837     -94.503
  P     -141.358     277.080     -94.007
  C     -142.254     274.786     -94.858
  O     -141.778     275.547     -93.749
  C     -141.206     273.771     -95.323
  O     -140.733     273.023     -94.176
  C     -141.724     272.771     -96.360
  O     -140.669     272.515     -97.291
  C     -141.985     271.516     -95.547
  O     -141.931     270.341     -96.353
  C     -140.875     271.620     -94.482
  N     -141.190     270.839     -93.288
  C     -140.400     269.706     -93.045
  O     -139.551     269.361     -93.866
  N     -140.636     268.962     -91.912
  C     -141.636     269.267     -91.146
  N     -141.825     268.507     -90.029
  C     -142.562     270.382     -91.426
  C     -142.271     271.130     -92.486
  O     -141.145     277.659     -92.532
  O     -140.164     277.289     -94.877
  H     -142.798     270.241     -96.810
  H     -140.200     277.704     -92.307
  H     -143.404     270.569     -90.770
  H     -142.882     271.987     -92.759
  H     -139.917     271.269     -94.888
  H     -142.971     271.573     -95.075
  H     -142.605     273.134     -96.896
  H     -140.348     274.327     -95.728
  H     -141.183     267.737     -89.869
  H     -142.463     275.468     -95.689
  H     -142.580     268.665     -89.373
  H     -143.181     274.285     -94.584
  P     -141.072     272.134     -98.794
  C     -140.218     274.291     -99.902
  O     -141.354     273.542     -99.514
  O     -142.565     271.569     -98.592
  O     -140.222     271.153     -99.532
  H     -142.908     271.243     -99.445
  H     -140.552     275.152    -100.492
  H     -139.548     273.682    -100.511
  H     -139.693     274.663     -99.017
  H     -144.487     278.650     -93.988
  H     -143.229     278.793     -92.783
  H     -144.005     277.251     -93.058

 3  4  5  6  7  8  9  10  11  12  13  21  23  27  28  29  30  32 0
 6-311+G(2d,p)
 ****
 34  35 0
 6-311+G(2d,p)
 ****
 1  2  14  15  16  17  18  19  20  22  24  25  26 0
 3-21G
 ****
 31  33  36  37  38  39  40  41  42  43  44  45  46 0
 3-21G
 ****


