%nproc=1
%NoSave
%Mem=1900MB
#P OB98/GEN NMR

erre ene a

0 1
  C     -898.760     163.404    -892.830
  O     -899.470     163.101    -894.040
  P     -898.920     163.763    -895.410
  C     -898.170     161.637    -896.710
  O     -897.800     162.813    -896.020
  C     -896.960     160.805    -897.180
  O     -896.080     161.605    -898.020
  C     -896.090     160.286    -896.020
  O     -895.500     159.075    -896.410
  C     -895.010     161.381    -895.930
  O     -893.860     160.892    -895.200
  C     -894.780     161.661    -897.380
  N     -890.670     164.000    -899.170
  C     -890.960     162.636    -899.070
  N     -890.020     161.783    -899.530
  N     -892.040     162.159    -898.550
  C     -892.900     163.137    -898.160
  C     -892.740     164.506    -898.190
  C     -891.490     165.007    -898.750
  O     -891.190     166.202    -898.860
  N     -893.840     165.185    -897.690
  C     -894.670     164.198    -897.310
  N     -894.160     162.942    -897.620
  O     -898.120     165.047    -894.880
  O     -900.000     164.166    -896.360
  H     -893.440     160.202    -895.750
  H     -898.610     165.854    -895.120
  H     -889.790     164.290    -899.580
  H     -895.610     164.348    -896.840
  H     -894.150     160.919    -897.870
  H     -895.390     162.249    -895.390
  H     -889.170     162.072    -900.000
  H     -896.640     160.154    -895.050
  H     -890.230     160.793    -899.500
  H     -897.340     159.940    -897.760
  H     -898.790     161.924    -897.590
  H     -898.860     161.043    -896.080
  P     -896.250     157.731    -895.970
  C     -896.560     156.596    -898.280
  O     -897.190     157.282    -897.210
  O     -897.280     158.176    -894.860
  O     -895.320     156.622    -895.450
  H     -897.510     157.467    -894.270
  H     -896.820     155.515    -898.190
  H     -895.470     156.699    -898.290
  H     -896.960     156.987    -899.230
  H     -899.228     162.904    -892.007
  H     -898.777     164.461    -892.662
  H     -897.746     163.073    -892.919

 3  4  5  6  7  8  9  10  11  12  23  26  30  31 0
 6-311+G(2d,p)
 ****
 33  35  36  37  38 0
 6-311+G(2d,p)
 ****
 1  2  13  14  15  16  17  18  19  20  21  22  24  25 0
 3-21G
 ****
 27  28  29  32  34  39  40  41  42  43  44  45  46  47  48  49 0
 3-21G
 ****


