%nproc=1
%NoSave
%Mem=1900MB
#P OB98/GEN NMR

erre ene a

0 1
  C      931.387    -895.220    -533.144
  O      931.577    -895.810    -531.879
  H      930.560    -895.720    -533.652
  H      932.285    -895.320    -533.761
  H      931.137    -894.150    -533.030
  P      932.819    -895.280    -531.010
  C      932.917    -897.770    -530.231
  O      933.114    -896.400    -529.894
  C      932.673    -898.570    -528.952
  O      933.887    -898.590    -528.143
  C      931.588    -898.000    -528.054
  O      930.280    -898.320    -528.491
  C      931.924    -898.680    -526.726
  O      931.347    -900.000    -526.645
  C      933.459    -898.740    -526.764
  N      934.061    -897.740    -525.883
  C      935.380    -897.940    -525.549
  O      936.039    -898.930    -525.939
  N      935.945    -897.040    -524.698
  C      935.289    -895.980    -524.145
  O      935.851    -895.220    -523.338
  C      933.888    -895.790    -524.516
  C      933.335    -896.670    -525.371
  O      932.197    -894.060    -530.188
  O      934.007    -894.860    -531.799
  H      932.502    -893.220    -530.544
  H      930.381    -899.840    -526.553
  H      936.906    -897.180    -524.427
  H      933.337    -894.970    -524.081
  H      932.291    -896.580    -525.652
  H      933.805    -899.740    -526.448
  H      931.550    -898.100    -525.883
  H      931.727    -896.920    -527.948
  H      932.440    -899.600    -529.230
  H      933.820    -898.150    -530.731
  H      932.068    -897.840    -530.923
  P      929.379    -897.130    -529.096
  C      927.038    -897.540    -527.959
  O      927.874    -897.670    -529.106
  O      929.833    -897.150    -530.619
  O      929.587    -895.820    -528.372
  H      930.144    -898.030    -530.905
  H      926.077    -897.961    -528.169
  H      926.928    -896.504    -527.713
  H      927.481    -898.057    -527.134

 6  7  8  9  10  11  12  13  14  15  16  27  31  32  33  34  35 0
 6-311+G(2d,p)
 ****
 36  37 0
 6-311+G(2d,p)
 ****
 1  2  3  4  5  17  18  19  20  21  22  23  24  25 0
 3-21G
 ****
 26  28  29  30  38  39  40  41  42  43  44  45 0
 3-21G
 ****


