%nproc=1
%NoSave
%Mem=1900MB
#P OB98/GEN NMR

erre ene a

0 1
  C      222.508    -274.041     183.873
  O      222.503    -272.868     184.688
  P      223.833    -272.465     185.487
  C      223.281    -273.537     187.768
  O      224.115    -273.567     186.618
  C      224.057    -273.950     189.028
  O      223.252    -273.682     190.210
  C      224.430    -275.441     189.041
  O      225.816    -275.668     189.311
  C      223.453    -276.045     190.030
  O      223.917    -277.262     190.600
  C      223.193    -274.881     190.997
  N      221.904    -275.025     191.694
  C      221.947    -275.546     192.981
  O      222.982    -275.947     193.513
  N      220.740    -275.645     193.625
  C      219.523    -275.357     193.087
  O      218.465    -275.511     193.688
  C      219.535    -274.874     191.697
  C      220.708    -274.732     191.076
  O      223.906    -271.050     185.953
  O      224.998    -272.769     184.423
  H      223.332    -277.490     191.356
  H      225.672    -272.066     184.505
  H      220.755    -276.004     194.569
  H      218.585    -274.658     191.231
  H      220.747    -274.389     190.049
  H      223.972    -274.833     191.767
  H      222.518    -276.274     189.501
  H      224.278    -275.896     188.053
  H      224.956    -273.331     189.072
  H      222.444    -274.223     187.626
  H      222.837    -272.537     187.870
  P      226.891    -276.111     188.213
  C      227.121    -278.574     188.990
  O      226.738    -277.682     187.959
  O      228.290    -275.648     188.454
  O      226.320    -275.464     186.861
  H      227.063    -275.106     186.339
  H      227.308    -279.557     188.550
  H      226.310    -278.659     189.716
  H      228.030    -278.235     189.494
  H      221.548    -274.161     183.415
  H      222.724    -274.896     184.479
  H      223.256    -273.945     183.114

 3  4  5  6  7  8  9  10  11  12  13  23  28  29  30  31  32 0
 6-311+G(2d,p)
 ****
 33  34 0
 6-311+G(2d,p)
 ****
 1  2  14  15  16  17  18  19  20  21  22  24  25  26  27 0
 3-21G
 ****
 35  36  37  38  39  40  41  42  43  44  45 0
 3-21G
 ****


