%nproc=1
%NoSave
%Mem=1900MB
#P OB98/GEN NMR

erre ene a

0 1
  C      -25.028    -272.822     -82.829
  O      -26.039    -272.245     -82.027
  H      -25.498    -273.508     -83.538
  H      -24.336    -273.389     -82.203
  H      -24.488    -272.054     -83.387
  P      -25.643    -271.088     -80.990
  C      -25.804    -272.631     -78.927
  O      -24.965    -271.801     -79.720
  C      -25.448    -272.500     -77.442
  O      -24.207    -273.212     -77.198
  C      -25.257    -271.053     -76.981
  O      -25.766    -270.912     -75.655
  C      -23.749    -270.881     -76.972
  O      -23.324    -269.874     -76.055
  C      -23.275    -272.284     -76.601
  N      -18.376    -271.412     -75.721
  C      -19.489    -271.073     -74.977
  N      -19.269    -270.381     -73.838
  N      -20.713    -271.382     -75.322
  C      -20.781    -272.093     -76.475
  C      -19.755    -272.488     -77.299
  C      -18.409    -272.120     -76.916
  O      -17.384    -272.381     -77.544
  N      -20.230    -273.178     -78.388
  C      -21.539    -273.195     -78.221
  N      -21.926    -272.540     -77.080
  O      -26.748    -270.137     -80.654
  O      -24.414    -270.339     -81.683
  H      -23.699    -270.109     -75.179
  H      -24.688    -269.479     -82.048
  H      -17.458    -271.140     -75.415
  H      -22.250    -273.662     -78.890
  H      -23.266    -272.452     -75.519
  H      -23.402    -270.600     -77.976
  H      -18.352    -270.132     -73.500
  H      -25.750    -270.340     -77.641
  H      -20.066    -270.148     -73.258
  H      -26.224    -273.001     -76.853
  H      -25.663    -273.668     -79.248
  H      -26.849    -272.349     -79.089
  P      -27.056    -269.989     -75.409
  C      -26.044    -267.670     -75.859
  O      -26.934    -268.675     -76.326
  O      -27.397    -269.731     -73.981
  O      -28.226    -270.814     -76.135
  H      -29.059    -270.691     -75.636
  H      -26.043    -266.848     -76.544
  H      -25.056    -268.074     -75.786
  H      -26.363    -267.331     -74.895

 6  7  8  9  10  11  12  13  14  15  26  29  33  34 0
 6-311+G(2d,p)
 ****
 36  38  39  40  41 0
 6-311+G(2d,p)
 ****
 1  2  3  4  5  16  17  18  19  20  21  22  23  24  25 0
 3-21G
 ****
 27  28  30  31  32  35  37  42  43  44  45  46  47 0
 3-21G
 ****
 48  49 0
 3-21G
 ****


