%nproc=1
%NoSave
%Mem=1900MB
#P OB98/GEN NMR

erre ene a

0 1
  C      362.618    -897.070     331.566
  O      361.779    -896.090     332.189
  P      362.172    -894.540     332.013
  C      360.167    -893.200     331.017
  O      361.356    -893.950     330.763
  C      358.927    -894.040     330.671
  O      358.873    -895.270     331.440
  C      357.612    -893.330     330.962
  O      357.263    -892.460     329.903
  C      356.648    -894.510     331.005
  O      356.302    -894.920     329.673
  C      357.493    -895.600     331.695
  N      357.410    -898.760     335.736
  C      357.625    -898.970     334.410
  N      357.612    -898.080     333.402
  C      357.365    -896.850     333.852
  C      357.120    -896.460     335.169
  C      357.147    -897.480     336.133
  N      356.944    -897.250     337.475
  N      356.893    -895.110     335.248
  C      356.997    -894.680     334.008
  N      357.283    -895.690     333.121
  O      363.678    -894.620     331.474
  O      362.080    -893.750     333.280
  H      355.781    -895.740     329.751
  H      364.187    -893.860     331.816
  H      357.830    -900.000     334.141
  H      356.897    -893.650     333.694
  H      357.307    -896.590     331.271
  H      355.709    -894.260     331.518
  H      357.642    -892.810     331.935
  H      358.980    -894.310     329.612
  H      360.173    -892.280     330.425
  H      357.002    -898.010     338.117
  H      356.768    -896.290     337.775
  H      360.158    -892.900     332.066
  P      358.380    -891.380     329.449
  C      358.924    -892.310     327.088
  O      359.332    -892.160     328.432
  O      359.263    -891.200     330.765
  O      357.822    -890.080     328.964
  H      359.642    -890.300     330.813
  H      359.805    -892.580     326.477
  H      358.501    -891.380     326.699
  H      358.188    -893.110     327.008
  H      362.235    -898.048     331.768
  H      363.611    -896.989     331.955
  H      362.635    -896.905     330.509

 3  4  5  6  7  8  9  10  11  12  22  25  29  30  31  32 0
 6-311+G(2d,p)
 ****
 33  36  37 0
 6-311+G(2d,p)
 ****
 1  2  13  14  15  16  17  18  19  20  21  23  24  26 0
 3-21G
 ****
 27  28  34  35  38  39  40  41  42  43  44  45  46  47  48 0
 3-21G
 ****


