%nproc=1
%NoSave
%Mem=1900MB
#P OB98/GEN NMR

erre ene a

0 1
  C      -12.712     -71.361    -308.858
  O      -12.713     -72.011    -307.597
  P      -12.656     -71.180    -306.222
  C      -10.123     -71.708    -306.187
  O      -11.130     -70.715    -306.068
  C       -9.272     -71.753    -304.916
  O       -8.512     -70.519    -304.823
  C      -10.075     -71.898    -303.617
  O       -9.298     -72.696    -302.720
  C      -10.171     -70.467    -303.117
  O      -10.429     -70.390    -301.724
  C       -8.803     -69.923    -303.545
  N       -8.781     -68.468    -303.629
  C       -8.602     -67.748    -302.445
  O       -8.489     -68.328    -301.364
  N       -8.549     -66.376    -302.507
  C       -8.748     -65.772    -303.639
  N       -8.628     -64.416    -303.659
  C       -9.050     -66.488    -304.892
  C       -9.026     -67.817    -304.819
  O      -13.210     -71.894    -305.038
  O      -13.389     -69.804    -306.559
  H      -11.379     -70.575    -301.579
  H      -14.374     -69.856    -306.463
  H       -9.237     -65.940    -305.805
  H       -9.212     -68.426    -305.696
  H       -8.025     -70.264    -302.853
  H      -10.981     -69.949    -303.639
  H      -11.050     -72.373    -303.773
  H       -8.552     -72.581    -305.013
  H       -8.253     -63.981    -302.822
  H       -9.479     -71.452    -307.033
  H       -8.447     -63.923    -304.524
  H      -10.586     -72.681    -306.387
  P      -10.068     -73.565    -301.609
  C       -9.214     -72.183    -299.587
  O      -10.325     -72.628    -300.337
  O       -8.898     -74.533    -301.083
  O      -11.222     -74.385    -302.091
  H       -9.295     -75.347    -300.722
  H       -9.572     -71.554    -298.765
  H       -8.544     -71.585    -300.210
  H       -8.670     -73.032    -299.161
  H      -12.754     -72.093    -309.637
  H      -11.818     -70.783    -308.960
  H      -13.563     -70.717    -308.928

 3  4  5  6  7  8  9  10  11  12  13  23  27  28  29  30  32 0
 6-311+G(2d,p)
 ****
 34  35 0
 6-311+G(2d,p)
 ****
 1  2  14  15  16  17  18  19  20  21  22  24  25  26 0
 3-21G
 ****
 31  33  36  37  38  39  40  41  42  43  44  45  46 0
 3-21G
 ****


