%nproc=1
%NoSave
%Mem=1900MB
#P OB98/GEN NMR

erre ene a

0 1
  C      -22.196      98.336    -177.504
  O      -22.687      97.314    -178.358
  P      -22.518      97.519    -179.940
  C      -20.361      96.119    -179.669
  O      -20.968      97.253    -180.271
  C      -18.903      95.996    -180.094
  O      -18.286      94.906    -179.352
  C      -18.701      95.704    -181.591
  O      -17.629      96.519    -182.090
  C      -18.232      94.260    -181.614
  O      -17.459      93.969    -182.771
  C      -17.457      94.200    -180.296
  N      -14.275      90.302    -180.718
  C      -14.137      91.605    -181.152
  N      -13.013      91.891    -181.845
  N      -15.017      92.544    -180.930
  C      -16.077      92.122    -180.197
  C      -16.324      90.860    -179.703
  C      -15.368      89.819    -180.007
  O      -15.477      88.626    -179.729
  N      -17.496      90.824    -178.991
  C      -17.961      92.058    -179.055
  N      -17.160      92.870    -179.819
  O      -22.678      99.102    -180.114
  O      -23.497      96.781    -180.786
  H      -18.051      94.061    -183.541
  H      -23.395      99.293    -180.749
  H      -13.576      89.615    -180.931
  H      -18.883      92.398    -178.600
  H      -16.506      94.744    -180.386
  H      -19.105      93.599    -181.598
  H      -12.277      91.225    -182.019
  H      -19.597      95.858    -182.201
  H      -12.881      92.846    -182.152
  H      -18.375      96.913    -179.805
  H      -20.900      95.217    -179.975
  H      -20.428      96.217    -178.580
  P      -17.803      97.064    -183.591
  C      -19.166      99.185    -182.937
  O      -19.148      97.929    -183.587
  O      -18.191      95.753    -184.419
  O      -16.588      97.743    -184.131
  H      -17.952      95.857    -185.359
  H      -18.166      99.503    -182.630
  H      -19.800      99.116    -182.050
  H      -19.582      99.932    -183.618
  H      -22.376      98.066    -176.484
  H      -22.698      99.255    -177.723
  H      -21.144      98.457    -177.661

 3  4  5  6  7  8  9  10  11  12  23  26  30  31  33  0
 6-311+G(2d,p)
 ****
 35  36  37  38 0
 6-311+G(2d,p)
 ****
 1  2  13  14  15  16  17  18  19  20  21  22  24  25  27  28  29 0
 3-21G
 ****
 32  34  39  40  41  42  43  44  45  46  47  48  49 0
 3-21G
 ****


