%nproc=1
%NoSave
%Mem=1900MB
#P OB98/GEN NMR

erre ene a

0 1
  C      669.292    -874.121    -248.814
  O      670.194    -872.993    -248.748
  P      669.903    -871.722    -249.691
  C      670.250    -869.149    -249.594
  O      670.552    -870.421    -249.034
  C      670.873    -868.024    -248.752
  O      670.317    -867.953    -247.431
  C      672.380    -868.181    -248.554
  O      673.100    -867.692    -249.667
  C      672.614    -867.290    -247.357
  O      672.682    -865.895    -247.769
  C      671.355    -867.523    -246.514
  N      673.920    -868.754    -242.261
  C      674.018    -867.689    -243.085
  N      673.300    -867.452    -244.218
  C      672.415    -868.417    -244.436
  C      672.227    -869.576    -243.689
  C      673.020    -869.729    -242.542
  N      672.936    -870.816    -241.697
  N      671.227    -870.359    -244.233
  C      670.833    -869.698    -245.302
  N      671.522    -868.534    -245.470
  O      668.316    -871.495    -249.511
  O      670.235    -871.948    -251.123
  H      673.531    -865.810    -248.267
  H      667.940    -871.179    -250.338
  H      674.748    -866.939    -242.824
  H      670.043    -870.015    -245.975
  H      670.985    -866.617    -246.021
  H      673.564    -867.488    -246.832
  H      672.649    -869.225    -248.313
  H      670.680    -867.064    -249.260
  H      669.166    -869.000    -249.632
  H      673.517    -870.842    -240.877
  H      672.241    -871.529    -241.891
  H      670.623    -869.115    -250.636
  P      673.794    -868.799    -250.635
  C      674.131    -868.649    -253.212
  O      674.271    -868.014    -251.941
  O      672.562    -869.679    -251.117
  O      674.858    -869.617    -249.953
  H      672.861    -870.615    -251.268
  H      674.194    -867.878    -253.985
  H      673.169    -869.180    -253.271
  H      674.935    -869.356    -253.339
  H      669.618    -874.879    -248.133
  H      669.285    -874.515    -249.809
  H      668.305    -873.804    -248.549

 3  4  5  6  7  8  9  10  11  12  22  25  29  30  31  32 0
 6-311+G(2d,p)
 ****
 33  36  37 0
 6-311+G(2d,p)
 ****
 1  2  13  14  15  16  17  18  19  20  21  23  24  26 0
 3-21G
 ****
 27  28  34  35  38  39  40  41  42  43  44  45  46  47  48 0
 3-21G
 ****


