%nproc=1
%NoSave
%Mem=1900MB
#P OB98/GEN NMR

erre ene a

0 1
  C      205.443     391.053     -21.718
  O      204.292     390.277     -21.980
  H      205.492     391.258     -20.646
  H      205.389     392.005     -22.255
  H      206.341     390.507     -22.016
  P      203.997     389.914     -23.514
  C      202.456     391.961     -23.942
  O      202.566     390.547     -23.868
  C      201.160     392.411     -23.276
  O      200.026     391.865     -23.986
  C      201.005     391.932     -21.838
  O      201.763     392.710     -20.928
  C      199.507     392.092     -21.643
  O      199.162     393.438     -21.282
  C      198.948     391.733     -23.036
  N      198.355     390.398     -23.064
  C      197.334     390.173     -22.148
  O      196.939     391.028     -21.355
  N      196.801     388.915     -22.143
  C      197.207     387.868     -22.922
  O      196.736     386.744     -22.819
  C      198.281     388.169     -23.884
  C      198.806     389.397     -23.904
  O      203.717     388.339     -23.465
  O      205.090     390.263     -24.468
  H      204.498     387.852     -23.784
  H      199.558     394.015     -21.964
  H      196.064     388.730     -21.476
  H      198.622     387.365     -24.523
  H      199.613     389.639     -24.590
  H      198.176     392.449     -23.335
  H      199.134     391.448     -20.846
  H      201.261     390.871     -21.763
  H      201.104     393.507     -23.326
  H      202.444     392.271     -24.993
  H      203.324     392.413     -23.452
  P      201.861     392.228     -19.404
  C      200.907     394.353     -18.186
  O      202.030     393.553     -18.516
  O      203.313     391.558     -19.383
  O      200.747     391.331     -18.985
  H      203.954     392.021     -19.952
  H      201.224     395.185     -17.593
  H      200.203     393.768     -17.632
  H      200.447     394.710     -19.084

 6  7  8  9  10  11  12  13  14  15  16  27  31  32  33  34  35 0
 6-311+G(2d,p)
 ****
 36  37 0
 6-311+G(2d,p)
 ****
 1  2  3  4  5  17  18  19  20  21  22  23  24  25 0
 3-21G
 ****
 26  28  29  30  38  39  40  41  42  43  44  45 0
 3-21G
 ****


