%nproc=1
%NoSave
%Mem=1900MB
#P OB98/GEN NMR

erre ene a

0 1
  C     -322.295     281.231     603.777
  O     -323.292     282.243     603.667
  P     -322.994     283.808     603.530
  C     -322.751     284.031     600.927
  O     -322.127     284.033     602.203
  C     -322.441     285.301     600.109
  O     -321.021     285.352     599.817
  C     -323.157     285.255     598.757
  O     -324.509     285.658     598.661
  C     -322.221     285.975     597.806
  O     -322.541     287.356     597.660
  C     -320.852     285.809     598.460
  N     -316.491     285.194     595.851
  C     -317.038     286.344     596.380
  N     -316.363     287.487     596.144
  N     -318.148     286.374     597.062
  C     -318.768     285.172     597.145
  C     -318.341     283.963     596.651
  C     -317.075     283.934     595.941
  O     -316.539     282.936     595.467
  N     -319.235     282.959     596.915
  C     -320.217     283.566     597.552
  N     -319.971     284.911     597.723
  O     -322.524     284.482     604.774
  O     -324.433     284.428     603.148
  H     -323.486     287.421     597.407
  H     -324.463     285.325     603.549
  H     -315.622     285.221     595.353
  H     -321.119     283.088     597.907
  H     -320.320     286.770     598.522
  H     -322.284     285.537     596.800
  H     -315.566     287.550     595.529
  H     -323.156     284.203     598.432
  H     -316.862     288.355     596.346
  H     -322.664     286.201     600.688
  H     -323.824     283.938     601.101
  H     -322.447     283.145     600.364
  P     -325.784     284.686     598.556
  C     -326.720     285.198     600.886
  O     -326.161     284.212     600.030
  O     -325.201     283.354     597.891
  O     -326.920     285.229     597.754
  H     -325.933     282.806     597.540
  H     -326.644     284.863     601.922
  H     -327.774     285.347     600.634
  H     -326.185     286.148     600.786
  H     -322.766     280.273     603.856
  H     -321.701     281.409     604.649
  H     -321.670     281.251     602.909

 3  4  5  6  7  8  9  10  11  12  23  26  30  31 0
 6-311+G(2d,p)
 ****
 33  35  36  37  38 0
 6-311+G(2d,p)
 ****
 1  2  13  14  15  16  17  18  19  20  21  22  24  25 0
 3-21G
 ****
 27  28  29  32  34  39  40  41  42  43  44  45  46  47  48  49 0
 3-21G
 ****


