%nproc=1
%NoSave
%Mem=1900MB
#P OB98/GEN NMR

erre ene a

0 1
  C      530.583     585.646     337.082
  O      531.878     585.794     336.535
  P      532.858     586.957     337.009
  C      533.369     589.386     336.283
  O      532.565     588.229     336.060
  C      533.637     590.106     334.948
  O      534.480     589.250     334.118
  C      532.343     590.412     334.164
  O      532.220     591.788     333.771
  C      532.399     589.408     333.028
  O      531.614     589.761     331.903
  C      533.914     589.281     332.794
  N      534.268     588.093     332.010
  C      533.957     588.120     330.644
  O      533.443     589.073     330.069
  N      534.229     586.979     329.952
  C      534.648     585.794     330.488
  O      534.780     584.773     329.825
  C      534.913     585.809     331.939
  C      534.727     586.953     332.620
  O      534.302     586.599     337.105
  O      532.202     587.438     338.396
  H      531.706     589.057     331.230
  H      531.292     587.753     338.332
  H      534.017     586.980     328.963
  H      535.239     584.880     332.391
  H      534.912     586.985     333.691
  H      534.314     590.149     332.292
  H      532.006     588.454     333.398
  H      531.458     590.226     334.781
  H      534.193     591.021     335.182
  H      534.324     589.081     336.723
  H      532.872     590.050     336.993
  P      530.899     592.438     333.142
  C      530.103     592.872     330.693
  O      530.833     592.064     331.587
  O      530.694     593.882     333.447
  O      529.710     591.552     333.759
  H      528.908     592.090     333.835
  H      529.754     592.255     329.862
  H      530.759     593.661     330.307
  H      529.235     593.333     331.196
  H      530.097     584.809     336.627
  H      530.014     586.533     336.896
  H      530.658     585.485     338.137

 3  4  5  6  7  8  9  10  11  12  13  23  28  29  30  31  32 0
 6-311+G(2d,p)
 ****
 33  34 0
 6-311+G(2d,p)
 ****
 1  2  14  15  16  17  18  19  20  21  22  24  25  26  27 0
 3-21G
 ****
 35  36  37  38  39  40  41  42  43  44  45 0
 3-21G
 ****


