%nproc=1
%NoSave
%Mem=1900MB
#P OB98/GEN NMR

erre ene a

0 1
  C      200.761    -176.132     356.102
  O      200.215    -177.161     355.303
  H      201.787    -175.938     355.775
  H      200.776    -176.430     357.154
  H      200.174    -175.215     355.985
  P      198.740    -177.665     355.700
  C      199.617    -179.504     357.328
  O      198.931    -178.268     357.178
  C      198.890    -180.374     358.350
  O      199.460    -181.698     358.393
  C      198.960    -179.850     359.781
  O      198.054    -178.789     360.024
  C      198.585    -181.106     360.551
  O      197.166    -181.319     360.455
  C      199.365    -182.185     359.760
  N      200.694    -182.446     360.312
  C      200.757    -183.305     361.416
  O      199.734    -183.789     361.894
  N      201.986    -183.564     361.982
  C      203.054    -183.027     361.486
  N      204.244    -183.308     362.095
  C      203.033    -182.135     360.314
  C      201.841    -181.885     359.784
  O      198.536    -178.979     354.809
  O      197.646    -176.657     355.571
  H      196.962    -182.113     360.985
  H      197.702    -179.437     355.073
  H      203.950    -181.697     359.940
  H      201.745    -181.235     358.919
  H      198.805    -183.126     359.734
  H      198.832    -181.046     361.611
  H      199.987    -179.568     360.055
  H      197.844    -180.481     358.019
  H      204.218    -183.873     362.932
  H      200.637    -179.296     357.671
  H      205.090    -182.799     361.893
  H      199.661    -180.032     356.370
  P      198.675    -177.359     360.429
  C      198.338    -177.710     362.983
  O      199.263    -177.506     361.919
  O      197.375    -176.446     360.630
  O      199.621    -176.773     359.423
  H      197.525    -175.543     360.294
  H      198.870    -177.789     363.908
  H      197.788    -178.611     362.810
  H      197.661    -176.883     363.030

 6  7  8  9  10  11  12  13  14  15  16  26  30  31  32  33  35 0
 6-311+G(2d,p)
 ****
 37  38 0
 6-311+G(2d,p)
 ****
 1  2  3  4  5  17  18  19  20  21  22  23  24  25 0
 3-21G
 ****
 27  28  29  34  36  39  40  41  42  43  44  45  46 0
 3-21G
 ****


