%nproc=1
%NoSave
%Mem=1900MB
#P OB98/GEN NMR

erre ene a

0 1
  C       54.175     -55.127       1.501
  O       54.641     -53.795       1.583
  P       55.709     -53.380       2.701
  C       53.800     -52.608       4.238
  O       54.979     -53.400       4.127
  C       53.107     -52.866       5.573
  O       52.802     -54.271       5.732
  C       53.948     -52.506       6.788
  O       54.050     -51.106       6.968
  C       53.200     -53.245       7.889
  O       52.053     -52.497       8.319
  C       52.760     -54.531       7.157
  N       53.577     -55.680       7.513
  C       53.295     -56.277       8.745
  O       52.455     -55.784       9.499
  N       53.980     -57.415       9.094
  C       54.946     -57.841       8.341
  N       55.548     -59.005       8.706
  C       55.381     -57.143       7.114
  C       54.646     -56.094       6.751
  O       56.483     -52.137       2.412
  O       56.688     -54.646       2.790
  H       57.612     -54.335       2.727
  H       51.606     -53.039       8.998
  H       56.235     -57.502       6.559
  H       54.878     -55.533       5.852
  H       51.712     -54.757       7.386
  H       53.822     -53.418       8.773
  H       54.953     -52.933       6.680
  H       52.163     -52.306       5.580
  H       55.210     -59.464       9.543
  H       53.126     -52.868       3.417
  H       56.064     -59.582       8.046
  H       54.067     -51.551       4.140
  P       55.264     -50.577       7.874
  C       53.729     -50.242       9.932
  O       54.882     -50.863       9.402
  O       55.153     -48.984       7.745
  O       56.612     -51.064       7.453
  H       56.046     -48.594       7.733
  H       53.417     -50.788      10.825
  H       52.906     -50.243       9.212
  H       53.966     -49.212      10.214
  H       53.472     -55.210       0.698
  H       53.699     -55.396       2.421
  H       55.001     -55.783       1.322

 3  4  5  6  7  8  9  10  11  12  13  24  27  28  29  30  32 0
 6-311+G(2d,p)
 ****
 34  35 0
 6-311+G(2d,p)
 ****
 1  2  14  15  16  17  18  19  20  21  22  23  25  26 0
 3-21G
 ****
 31  33  36  37  38  39  40  41  42  43  44  45  46 0
 3-21G
 ****


