%nproc=1
%NoSave
%Mem=1900MB
#P OB98/GEN NMR

erre ene a

0 1
  C       28.260    -231.164      73.216
  O       29.304    -230.821      72.297
  P       30.653    -230.229      72.945
  C       32.616    -231.439      71.748
  O       31.804    -230.274      71.823
  C       32.128    -232.406      70.667
  O       31.853    -231.666      69.453
  C       33.120    -233.516      70.301
  O       32.385    -234.719      70.032
  C       33.709    -233.040      68.987
  O       34.247    -234.112      68.217
  C       32.490    -232.360      68.368
  N       33.697    -231.919      63.476
  C       33.289    -233.031      64.187
  N       33.214    -234.190      63.502
  N       32.980    -233.004      65.458
  C       33.070    -231.769      66.008
  C       33.452    -230.591      65.405
  C       33.830    -230.643      64.010
  O       34.251    -229.704      63.337
  N       33.420    -229.541      66.292
  C       33.028    -230.085      67.425
  N       32.811    -231.434      67.306
  O       31.082    -231.362      73.989
  O       30.469    -228.910      73.616
  H       34.502    -233.743      67.351
  H       31.166    -230.978      74.882
  H       33.942    -231.998      62.505
  H       32.909    -229.559      68.363
  H       31.780    -233.096      67.975
  H       34.515    -232.323      69.186
  H       33.374    -234.267      62.510
  H       33.885    -233.709      71.061
  H       32.873    -235.006      63.996
  H       31.178    -232.841      71.001
  H       32.608    -231.949      72.715
  H       33.648    -231.132      71.542
  P       32.722    -235.984      70.959
  C       30.329    -236.971      71.213
  O       31.609    -237.082      70.619
  O       32.326    -235.483      72.427
  O       34.140    -236.442      70.876
  H       32.852    -235.957      73.098
  H       30.185    -236.005      71.703
  H       30.210    -237.765      71.954
  H       29.567    -237.089      70.438
  H       27.419    -231.544      72.675
  H       27.967    -230.293      73.764
  H       28.614    -231.911      73.895

 3  4  5  6  7  8  9  10  11  12  23  26  30  31  33  0
 6-311+G(2d,p)
 ****
 35  36  37  38 0
 6-311+G(2d,p)
 ****
 1  2  13  14  15  16  17  18  19  20  21  22  24  25  27  28  29 0
 3-21G
 ****
 32  34  39  40  41  42  43  44  45  46  47  48  49 0
 3-21G
 ****


