%nproc=1
%NoSave
%Mem=1900MB
#P OB98/GEN NMR

erre ene a

0 1
  C     -150.008    -224.393      17.919
  O     -149.053    -223.726      17.123
  H     -149.909    -225.468      17.755
  H     -151.018    -224.088      17.639
  H     -149.835    -224.183      18.979
  P     -149.027    -222.122      17.130
  C     -150.494    -220.238      16.151
  O     -150.219    -221.636      16.172
  C     -151.910    -219.987      15.618
  O     -151.913    -220.293      14.202
  C     -152.961    -220.875      16.306
  O     -154.058    -220.129      16.832
  C     -153.260    -221.939      15.254
  O     -154.540    -222.520      15.360
  C     -152.989    -221.211      13.934
  N     -152.647    -222.103      12.829
  C     -153.698    -222.636      12.086
  O     -154.886    -222.404      12.281
  N     -153.333    -223.475      11.063
  C     -152.060    -223.835      10.733
  O     -151.795    -224.589       9.804
  C     -150.996    -223.262      11.573
  C     -151.330    -222.439      12.566
  O     -147.702    -221.496      16.843
  O     -149.556    -221.731      18.590
  H     -154.627    -223.162      14.622
  H     -148.806    -221.432      19.140
  H     -154.081    -223.855      10.509
  H     -149.975    -223.538      11.344
  H     -150.572    -221.998      13.205
  H     -153.864    -220.632      13.632
  H     -152.526    -222.749      15.370
  H     -152.539    -221.358      17.193
  H     -152.145    -218.923      15.727
  H     -149.754    -219.761      15.499
  H     -150.398    -219.828      17.161
  P     -154.833    -220.470      18.185
  C     -157.004    -221.803      18.842
  O     -156.110    -221.363      17.827
  O     -155.054    -219.327      19.116
  O     -153.859    -221.521      18.927
  H     -153.982    -221.375      19.886
  H     -157.787    -222.383      18.400
  H     -157.425    -220.954      19.339
  H     -156.472    -222.403      19.551

 6  7  8  9  10  11  12  13  14  15  16  26  31  32  33  34  35 0
 6-311+G(2d,p)
 ****
 36  37 0
 6-311+G(2d,p)
 ****
 1  2  3  4  5  17  18  19  20  21  22  23  24  25 0
 3-21G
 ****
 27  28  29  30  38  39  40  41  42  43  44  45 0
 3-21G
 ****


