%nproc=1
%NoSave
%Mem=1900MB
#P OB98/GEN NMR

erre ene a

0 1
  C      -87.830    -550.106     127.766
  O      -88.067    -548.779     128.243
  P      -87.595    -547.570     127.287
  C      -89.137    -545.773     128.374
  O      -87.813    -546.206     128.103
  C      -89.167    -544.845     129.587
  O      -88.967    -545.575     130.807
  C      -88.085    -543.779     129.583
  O      -88.423    -542.685     128.740
  C      -88.079    -543.349     131.046
  O      -89.131    -542.388     131.272
  C      -88.377    -544.668     131.776
  N      -84.275    -543.997     134.673
  C      -85.263    -543.103     134.319
  N      -85.159    -541.855     134.833
  N      -86.268    -543.399     133.529
  C      -86.260    -544.687     133.119
  C      -85.337    -545.672     133.399
  C      -84.212    -545.321     134.248
  O      -83.293    -546.071     134.567
  N      -85.671    -546.862     132.802
  C      -86.806    -546.613     132.188
  N      -87.197    -545.300     132.345
  O      -88.751    -547.524     126.181
  O      -86.245    -547.765     126.685
  H      -89.976    -542.854     131.138
  H      -88.398    -547.155     125.349
  H      -83.523    -543.713     135.281
  H      -87.387    -547.338     131.627
  H      -89.112    -544.536     132.577
  H      -87.138    -542.867     131.343
  H      -84.457    -541.579     135.505
  H      -87.103    -544.206     129.317
  H      -85.893    -541.197     134.619
  H      -90.165    -544.365     129.623
  H      -89.775    -546.641     128.563
  H      -89.530    -545.271     127.481
  P      -87.211    -541.877     128.057
  C      -88.481    -541.546     125.813
  O      -87.893    -540.932     126.944
  O      -86.459    -543.003     127.205
  O      -86.300    -541.203     129.023
  H      -85.506    -542.784     127.123
  H      -89.056    -542.431     126.100
  H      -87.696    -541.837     125.108
  H      -89.143    -540.832     125.341
  H      -88.186    -550.813     128.486
  H      -86.780    -550.249     127.615
  H      -88.347    -550.250     126.840

 3  4  5  6  7  8  9  10  11  12  23  26  30  31  33  0
 6-311+G(2d,p)
 ****
 35  36  37  38 0
 6-311+G(2d,p)
 ****
 1  2  13  14  15  16  17  18  19  20  21  22  24  25  27  28  29 0
 3-21G
 ****
 32  34  39  40  41  42  43  44  45  46  47  48  49 0
 3-21G
 ****


