%nproc=1
%NoSave
%Mem=1900MB
#P OB98/GEN NMR

erre ene a

0 1
  C        6.664      47.992    -168.100
  O        6.869      49.377    -168.280
  H        7.087      47.700    -167.135
  H        7.170      47.428    -168.887
  H        5.597      47.755    -168.100
  P        6.226      50.095    -169.561
  C        6.731      52.485    -168.744
  O        6.982      51.498    -169.736
  C        7.751      53.614    -168.866
  O        9.065      53.145    -168.491
  C        7.895      54.165    -170.280
  O        6.801      54.997    -170.611
  C        9.236      54.873    -170.166
  O        9.095      56.148    -169.522
  C       10.027      53.895    -169.266
  N       10.902      53.001    -170.028
  C       12.046      53.578    -170.568
  O       12.331      54.765    -170.434
  N       12.837      52.744    -171.315
  C       12.548      51.450    -171.638
  O       13.167      50.812    -172.483
  C       11.368      50.875    -170.978
  C       10.601      51.668    -170.228
  O        4.736      50.172    -169.580
  O        6.783      49.234    -170.792
  H        6.088      48.621    -171.097
  H        8.747      55.968    -168.627
  H       13.644      53.164    -171.751
  H       11.141      49.831    -171.157
  H        9.708      51.273    -169.755
  H       10.649      54.449    -168.551
  H        9.693      55.056    -171.140
  H        7.989      53.342    -170.997
  H        7.464      54.410    -168.166
  H        6.821      52.018    -167.757
  H        5.712      52.866    -168.866
  P        5.688      54.523    -171.656
  C        3.808      56.005    -170.743
  O        4.647      55.725    -171.855
  O        5.058      53.203    -171.355
  O        6.459      54.479    -173.060
  H        6.331      53.600    -173.468
  H        3.157      56.819    -170.983
  H        4.411      56.267    -169.899
  H        3.225      55.139    -170.509

 6  7  8  9  10  11  12  13  14  15  16  27  31  32  33  34  35 0
 6-311+G(2d,p)
 ****
 36  37 0
 6-311+G(2d,p)
 ****
 1  2  3  4  5  17  18  19  20  21  22  23  24  25 0
 3-21G
 ****
 26  28  29  30  38  39  40  41  42  43  44  45 0
 3-21G
 ****


