%nproc=1
%NoSave
%Mem=1900MB
#P OB98/GEN NMR

erre ene a

0 1
  C     -404.871    -209.119     357.463
  O     -404.625    -209.297     356.070
  P     -403.505    -208.369     355.398
  C     -402.363    -208.323     353.064
  O     -403.142    -209.052     354.001
  C     -402.231    -209.095     351.757
  O     -401.385    -210.254     351.939
  C     -403.547    -209.633     351.218
  O     -404.294    -208.594     350.603
  C     -403.070    -210.706     350.249
  O     -402.790    -210.152     348.956
  C     -401.769    -211.220     350.931
  N     -401.918    -212.543     351.504
  C     -401.798    -213.610     350.599
  O     -401.599    -213.380     349.403
  N     -401.952    -214.897     351.062
  C     -402.198    -215.092     352.331
  N     -402.330    -216.378     352.735
  C     -402.348    -213.995     353.303
  C     -402.214    -212.759     352.818
  O     -402.207    -208.648     356.303
  O     -403.846    -206.913     355.343
  H     -402.526    -210.911     348.397
  H     -401.596    -207.884     356.280
  H     -402.554    -214.224     354.343
  H     -402.304    -211.897     353.482
  H     -400.942    -211.246     350.212
  H     -403.819    -211.492     350.105
  H     -404.130    -210.090     352.023
  H     -401.743    -208.441     351.009
  H     -402.227    -217.119     352.042
  H     -401.354    -208.162     353.483
  H     -402.506    -216.653     353.697
  H     -402.821    -207.344     352.900
  P     -405.660    -208.998     349.867
  C     -407.782    -207.706     349.229
  O     -406.588    -207.706     349.996
  O     -406.327    -209.993     350.926
  O     -405.551    -209.617     348.508
  H     -407.133    -210.395     350.545
  H     -408.399    -206.857     349.531
  H     -408.351    -208.627     349.410
  H     -407.545    -207.632     348.166
  H     -405.636    -209.797     357.780
  H     -405.188    -208.113     357.643
  H     -403.973    -209.313     358.011

 3  4  5  6  7  8  9  10  11  12  13  21  23  27  28  29  30  32 0
 6-311+G(2d,p)
 ****
 34  35 0
 6-311+G(2d,p)
 ****
 1  2  14  15  16  17  18  19  20  22  24  25  26 0
 3-21G
 ****
 31  33  36  37  38  39  40  41  42  43  44  45  46 0
 3-21G
 ****


