%nproc=1
%NoSave
%Mem=1900MB
#P OB98/GEN NMR

erre ene a

0 1
  C      -60.732     213.252     -37.159
  O      -61.558     214.054     -36.333
  P      -62.299     215.342     -36.925
  C      -61.618     217.681     -37.726
  O      -61.165     216.365     -37.425
  C      -60.560     218.474     -38.490
  O      -60.264     217.794     -39.741
  C      -60.961     219.916     -38.840
  O      -59.769     220.710     -38.783
  C      -61.427     219.796     -40.284
  O      -61.409     221.035     -40.980
  C      -60.429     218.756     -40.800
  N      -60.317     218.779     -45.922
  C      -59.790     219.625     -45.006
  N      -59.888     219.562     -43.661
  C      -60.616     218.500     -43.277
  C      -61.243     217.573     -44.100
  C      -61.059     217.734     -45.480
  N      -61.562     216.866     -46.428
  N      -61.951     216.655     -43.335
  C      -61.750     217.029     -42.087
  N      -60.894     218.100     -42.002
  O      -63.335     215.948     -36.033
  O      -62.952     214.825     -38.295
  H      -62.049     221.637     -40.556
  H      -63.914     214.728     -38.184
  H      -59.205     220.449     -45.407
  H      -62.191     216.565     -41.216
  H      -59.453     219.204     -41.015
  H      -62.453     219.403     -40.310
  H      -61.735     220.341     -38.185
  H      -59.633     218.474     -37.898
  H      -61.839     218.189     -36.779
  H      -61.258     216.999     -47.386
  H      -61.878     215.941     -46.133
  H      -62.546     217.630     -38.313
  P      -59.855     222.300     -38.928
  C      -59.742     223.995     -40.848
  O      -59.824     222.624     -40.498
  O      -58.878     223.075     -38.097
  O      -61.372     222.633     -38.516
  H      -61.453     223.577     -38.301
  H      -60.739     224.452     -40.782
  H      -59.384     224.077     -41.883
  H      -59.054     224.534     -40.187
  H      -60.329     212.444     -36.584
  H      -59.932     213.846     -37.548
  H      -61.311     212.860     -37.969

 3  4  5  6  7  8  9  10  11  12  22  25  29  30  31  32 0
 6-311+G(2d,p)
 ****
 33  36  37 0
 6-311+G(2d,p)
 ****
 1  2  13  14  15  16  17  18  19  20  21  23  24  26 0
 3-21G
 ****
 27  28  34  35  38  39  40  41  42  43  44  45  46  47  48 0
 3-21G
 ****


