%nproc=1
%NoSave
%Mem=1900MB
#P OB98/GEN NMR

erre ene a

0 1
  C      -22.497     185.176     195.250
  O      -22.200     184.904     196.608
  P      -21.319     183.591     196.910
  C      -22.658     181.433     197.533
  O      -22.241     182.338     196.521
  C      -23.869     182.009     198.271
  O      -24.908     182.350     197.334
  C      -24.499     181.054     199.279
  O      -23.779     181.072     200.499
  C      -25.913     181.620     199.387
  O      -25.948     182.751     200.280
  C      -26.197     182.046     197.943
  N      -30.731     180.147     196.759
  C      -30.375     181.061     197.735
  N      -31.388     181.574     198.468
  N      -29.149     181.441     197.966
  C      -28.242     180.833     197.161
  C      -28.463     179.901     196.170
  C      -29.833     179.533     195.892
  O      -30.208     178.804     194.978
  N      -27.292     179.497     195.586
  C      -26.367     180.207     196.200
  N      -26.890     181.048     197.148
  O      -21.261     183.555     198.507
  O      -19.959     183.574     196.283
  H      -25.825     182.444     201.196
  H      -20.419     183.928     198.831
  H      -31.699     179.905     196.614
  H      -25.310     180.165     195.979
  H      -26.796     182.962     197.896
  H      -26.618     180.886     199.786
  H      -32.357     181.313     198.364
  H      -24.537     180.038     198.868
  H      -31.148     182.244     199.195
  H      -23.549     182.937     198.767
  H      -21.837     181.287     198.244
  H      -22.902     180.471     197.075
  P      -23.671     179.697     201.317
  C      -24.768     179.881     203.665
  O      -24.944     179.624     202.287
  O      -22.442     179.958     202.312
  O      -23.440     178.491     200.471
  H      -21.936     179.133     202.430
  H      -25.692     180.304     204.065
  H      -23.950     180.587     203.845
  H      -24.551     178.943     204.184
  H      -23.084     186.069     195.185
  H      -23.046     184.357     194.834
  H      -21.586     185.308     194.705

 3  4  5  6  7  8  9  10  11  12  23  26  30  31 0
 6-311+G(2d,p)
 ****
 33  35  36  37  38 0
 6-311+G(2d,p)
 ****
 1  2  13  14  15  16  17  18  19  20  21  22  24  25 0
 3-21G
 ****
 27  28  29  32  34  39  40  41  42  43  44  45  46  47  48  49 0
 3-21G
 ****


