%nproc=1
%NoSave
%Mem=1900MB
#P OB98/GEN NMR

erre ene a

0 1
  C     -134.955    -284.786    -108.561
  O     -135.140    -284.713    -107.161
  H     -135.913    -285.016    -109.031
  H     -134.244    -285.579    -108.804
  H     -134.591    -283.830    -108.947
  P     -133.876    -284.271    -106.281
  C     -135.202    -283.735    -104.104
  O     -134.262    -284.579    -104.752
  C     -136.622    -284.197    -104.428
  O     -136.793    -285.554    -103.935
  C     -137.708    -283.332    -103.775
  O     -138.819    -283.224    -104.669
  C     -138.110    -284.141    -102.553
  O     -139.412    -283.849    -102.075
  C     -137.960    -285.569    -103.087
  N     -137.815    -286.557    -102.022
  C     -138.817    -287.514    -101.892
  O     -139.774    -287.633    -102.658
  N     -138.689    -288.362    -100.823
  C     -137.701    -288.333     -99.882
  O     -137.653    -289.107     -98.933
  C     -136.675    -287.295    -100.067
  C     -136.780    -286.467    -101.108
  O     -133.916    -282.671    -106.351
  O     -132.562    -284.832    -106.710
  H     -133.391    -282.351    -107.109
  H     -140.045    -284.007    -102.804
  H     -139.408    -289.063    -100.715
  H     -135.882    -287.235     -99.336
  H     -136.049    -285.681    -101.268
  H     -138.821    -285.832    -103.720
  H     -137.399    -283.959    -101.736
  H     -137.352    -282.338    -103.504
  H     -136.747    -284.233    -105.518
  H     -135.068    -282.706    -104.459
  H     -135.032    -283.765    -103.024
  P     -138.787    -282.027    -105.742
  C     -140.284    -283.036    -107.636
  O     -140.173    -282.129    -106.553
  O     -137.686    -282.553    -106.770
  O     -138.502    -280.700    -105.124
  H     -137.710    -283.516    -106.909
  H     -141.266    -282.972    -108.056
  H     -140.110    -284.032    -107.286
  H     -139.560    -282.789    -108.384

 6  7  8  9  10  11  12  13  14  15  16  27  31  32  33  34  35 0
 6-311+G(2d,p)
 ****
 36  37 0
 6-311+G(2d,p)
 ****
 1  2  3  4  5  17  18  19  20  21  22  23  24  25 0
 3-21G
 ****
 26  28  29  30  38  39  40  41  42  43  44  45 0
 3-21G
 ****


