%nproc=1
%NoSave
%Mem=1900MB
#P OB98/GEN NMR

erre ene a

0 1
  C     -163.108     371.564     -26.286
  O     -164.342     372.253     -26.062
  P     -165.147     372.738     -27.370
  C     -165.028     374.796     -28.963
  O     -164.397     374.041     -27.936
  C     -164.632     376.268     -28.873
  O     -165.173     376.880     -27.684
  C     -163.131     376.511     -28.795
  O     -162.520     376.431     -30.077
  C     -163.090     377.939     -28.265
  O     -163.265     378.868     -29.353
  C     -164.301     377.981     -27.321
  N     -162.615     380.381     -23.182
  C     -162.858     380.867     -24.456
  N     -162.643     382.189     -24.640
  N     -163.272     380.129     -25.448
  C     -163.472     378.832     -25.111
  C     -163.265     378.228     -23.890
  C     -162.774     379.054     -22.803
  O     -162.514     378.661     -21.667
  N     -163.583     376.893     -23.928
  C     -164.011     376.696     -25.160
  N     -163.948     377.839     -25.921
  O     -166.501     373.331     -26.757
  O     -165.406     371.654     -28.360
  H     -162.660     378.589     -30.064
  H     -167.222     373.268     -27.413
  H     -162.288     380.993     -22.456
  H     -164.378     375.753     -25.548
  H     -164.882     378.904     -27.441
  H     -162.138     378.186     -27.788
  H     -162.397     382.831     -23.901
  H     -162.660     375.832     -28.072
  H     -162.852     382.570     -25.556
  H     -165.052     376.787     -29.748
  H     -166.114     374.704     -28.879
  H     -164.748     374.375     -29.935
  P     -161.323     375.375     -30.250
  C     -158.965     375.129     -29.194
  O     -160.165     375.869     -29.255
  O     -160.753     375.711     -31.707
  O     -161.736     373.945     -30.122
  H     -160.362     374.911     -32.108
  H     -158.625     374.837     -30.192
  H     -159.114     374.232     -28.582
  H     -158.191     375.752     -28.732
  H     -162.673     371.296     -25.346
  H     -162.436     372.201     -26.821
  H     -163.292     370.679     -26.859

 3  4  5  6  7  8  9  10  11  12  23  26  30  31  33  0
 6-311+G(2d,p)
 ****
 35  36  37  38 0
 6-311+G(2d,p)
 ****
 1  2  13  14  15  16  17  18  19  20  21  22  24  25  27  28  29 0
 3-21G
 ****
 32  34  39  40  41  42  43  44  45  46  47  48  49 0
 3-21G
 ****


