%nproc=1
%NoSave
%Mem=1900MB
#P OB98/GEN NMR

erre ene a

0 1
  C      218.660     108.241    -281.536
  O      218.302     107.463    -282.663
  H      217.861     108.964    -281.344
  H      219.588     108.785    -281.724
  H      218.769     107.604    -280.652
  P      219.335     106.363    -283.199
  C      219.004     104.227    -284.617
  O      218.600     105.578    -284.394
  C      218.016     103.532    -285.562
  O      216.841     103.179    -284.789
  C      217.574     104.436    -286.725
  O      217.751     103.829    -288.009
  C      216.160     104.853    -286.330
  O      215.319     105.183    -287.416
  C      215.677     103.667    -285.484
  N      214.617     104.010    -284.537
  C      213.319     104.102    -285.035
  O      212.990     103.893    -286.205
  N      212.355     104.445    -284.118
  C      212.559     104.706    -282.796
  O      211.655     105.005    -282.021
  C      213.953     104.615    -282.331
  C      214.904     104.278    -283.211
  O      219.949     105.489    -282.157
  O      220.446     107.224    -283.972
  H      214.405     105.271    -287.068
  H      221.245     107.302    -283.413
  H      211.412     104.504    -284.464
  H      214.153     104.825    -281.289
  H      215.946     104.201    -282.902
  H      215.303     102.867    -286.126
  H      216.233     105.742    -285.692
  H      218.206     105.333    -286.785
  H      218.470     102.600    -285.924
  H      219.031     103.720    -283.650
  H      220.009     104.213    -285.055
  P      219.059     103.982    -288.914
  C      220.529     102.194    -290.155
  O      219.234     102.635    -289.764
  O      220.267     104.508    -288.220
  O      218.614     105.068    -290.024
  H      219.418     105.579    -290.250
  H      220.443     101.284    -290.711
  H      221.126     102.025    -289.284
  H      220.991     102.942    -290.765

 6  7  8  9  10  11  12  13  14  15  16  26  31  32  33  34  35 0
 6-311+G(2d,p)
 ****
 36  37 0
 6-311+G(2d,p)
 ****
 1  2  3  4  5  17  18  19  20  21  22  23  24  25 0
 3-21G
 ****
 27  28  29  30  38  39  40  41  42  43  44  45 0
 3-21G
 ****


