%nproc=1
%NoSave
%Mem=1900MB
#P OB98/GEN NMR

erre ene a

0 1
  C     -115.633     135.207     162.566
  O     -116.000     136.573     162.627
  H     -115.281     134.896     163.552
  H     -114.825     135.059     161.844
  H     -116.496     134.595     162.291
  P     -116.477     137.298     161.281
  C     -118.921     136.741     161.929
  O     -117.914     136.685     160.924
  C     -120.277     137.076     161.312
  O     -120.649     136.075     160.343
  C     -121.426     137.127     162.315
  O     -121.372     138.312     163.080
  C     -122.621     137.004     161.384
  O     -122.903     138.255     160.743
  C     -122.098     135.972     160.356
  N     -122.513     134.601     160.634
  C     -123.829     134.275     160.285
  O     -124.566     135.124     159.784
  N     -124.273     132.997     160.533
  C     -123.468     132.115     161.039
  N     -123.968     130.866     161.252
  C     -122.062     132.410     161.386
  C     -121.661     133.661     161.175
  O     -115.502     137.292     160.146
  O     -116.827     138.789     161.750
  H     -122.901     138.932     161.456
  H     -116.058     139.377     161.620
  H     -121.424     131.640     161.797
  H     -120.641     133.959     161.402
  H     -122.437     136.234     159.345
  H     -123.526     136.696     161.910
  H     -121.399     136.239     162.966
  H     -120.183     138.032     160.778
  H     -124.932     130.707     160.977
  H     -118.626     137.529     162.635
  H     -123.398     130.067     161.486
  H     -118.977     135.793     162.473
  P     -121.993     138.394     164.557
  C     -119.909     137.100     165.342
  O     -121.329     137.176     165.377
  O     -123.482     138.447     164.615
  O     -121.278     139.673     165.199
  H     -121.692     140.508     164.851
  H     -119.583     136.259     165.917
  H     -119.494     137.996     165.754
  H     -119.583     136.988     164.329

 6  7  8  9  10  11  12  13  14  15  16  26  30  31  32  33  35 0
 6-311+G(2d,p)
 ****
 37  38 0
 6-311+G(2d,p)
 ****
 1  2  3  4  5  17  18  19  20  21  22  23  24  25 0
 3-21G
 ****
 27  28  29  34  36  39  40  41  42  43  44  45  46 0
 3-21G
 ****


