%nproc=1
%NoSave
%Mem=1900MB
#P OB98/GEN NMR

erre ene a

0 1
  C      153.062     -29.591    -196.115
  O      151.819     -29.123    -196.585
  H      152.938     -29.928    -195.082
  H      153.803     -28.788    -196.126
  H      153.411     -30.433    -196.717
  P      151.716     -28.523    -198.071
  C      152.101     -30.636    -199.477
  O      151.134     -29.725    -198.973
  C      151.483     -31.576    -200.511
  O      152.527     -32.388    -201.115
  C      150.434     -32.534    -199.927
  O      149.271     -32.544    -200.759
  C      151.116     -33.892    -199.989
  O      150.195     -34.978    -200.026
  C      151.993     -33.718    -201.233
  N      153.034     -34.732    -201.316
  C      152.894     -35.680    -202.335
  O      151.935     -35.624    -203.105
  N      153.810     -36.695    -202.425
  C      154.756     -36.786    -201.544
  N      155.614     -37.833    -201.672
  C      154.926     -35.824    -200.435
  C      154.040     -34.829    -200.384
  O      152.972     -27.902    -198.581
  O      150.487     -27.500    -198.016
  H      149.526     -34.796    -200.723
  H      150.579     -26.850    -198.751
  H      155.728     -35.947    -199.723
  H      154.083     -34.076    -199.605
  H      151.387     -33.762    -202.149
  H      151.750     -34.018    -199.101
  H      150.140     -32.280    -198.909
  H      151.059     -30.971    -201.322
  H      155.458     -38.472    -202.443
  H      152.514     -31.208    -198.638
  H      156.373     -38.021    -201.034
  H      152.903     -30.061    -199.951
  P      147.891     -32.130    -200.052
  C      147.247     -30.004    -201.394
  O      146.985     -31.377    -201.142
  O      148.328     -30.970    -199.041
  O      147.226     -33.259    -199.339
  H      148.260     -31.289    -198.122
  H      146.569     -29.642    -202.138
  H      148.252     -29.891    -201.743
  H      147.118     -29.445    -200.491

 6  7  8  9  10  11  12  13  14  15  16  26  30  31  32  33  35 0
 6-311+G(2d,p)
 ****
 37  38 0
 6-311+G(2d,p)
 ****
 1  2  3  4  5  17  18  19  20  21  22  23  24  25 0
 3-21G
 ****
 27  28  29  34  36  39  40  41  42  43  44  45  46 0
 3-21G
 ****


