%nproc=1
%NoSave
%Mem=1900MB
#P OB98/GEN NMR

erre ene a

0 1
  C     -427.702    -119.010     -91.186
  O     -427.005    -120.190     -91.545
  P     -425.422    -120.235     -91.279
  C     -424.812    -120.696     -93.767
  O     -424.716    -119.812     -92.657
  C     -423.970    -120.169     -94.932
  O     -424.606    -119.034     -95.550
  C     -422.584    -119.683     -94.533
  O     -421.656    -120.751     -94.391
  C     -422.221    -118.821     -95.732
  O     -421.766    -119.653     -96.816
  C     -423.572    -118.171     -96.081
  N     -423.856    -113.239     -97.177
  C     -423.906    -114.336     -98.018
  N     -423.985    -114.079     -99.339
  N     -423.887    -115.576     -97.597
  C     -423.792    -115.685     -96.248
  C     -423.740    -114.671     -95.316
  C     -423.752    -113.304     -95.791
  O     -423.654    -112.298     -95.103
  N     -423.661    -115.175     -94.041
  C     -423.670    -116.478     -94.201
  N     -423.707    -116.839     -95.519
  O     -425.108    -121.801     -91.175
  O     -424.974    -119.488     -90.066
  H     -420.893    -120.007     -96.543
  H     -424.246    -121.941     -90.749
  H     -423.867    -112.304     -97.543
  H     -423.638    -117.199     -93.390
  H     -423.723    -118.102     -97.160
  H     -421.417    -118.110     -95.516
  H     -423.940    -113.150     -99.728
  H     -422.622    -119.062     -93.633
  H     -423.960    -114.864     -99.981
  H     -423.901    -120.970     -95.683
  H     -425.851    -120.782     -94.073
  H     -424.454    -121.689     -93.465
  P     -420.257    -120.398     -93.694
  C     -418.745    -121.316     -95.601
  O     -419.220    -120.185     -94.901
  O     -419.809    -121.800     -93.055
  O     -420.320    -119.306     -92.680
  H     -419.226    -121.653     -92.288
  H     -418.281    -120.984     -96.532
  H     -419.562    -122.004     -95.845
  H     -417.995    -121.836     -95.005
  H     -428.740    -119.124     -91.419
  H     -427.303    -118.180     -91.731
  H     -427.589    -118.835     -90.136

 3  4  5  6  7  8  9  10  11  12  23  26  30  31 0
 6-311+G(2d,p)
 ****
 33  35  36  37  38 0
 6-311+G(2d,p)
 ****
 1  2  13  14  15  16  17  18  19  20  21  22  24  25 0
 3-21G
 ****
 27  28  29  32  34  39  40  41  42  43  44  45  46  47  48  49 0
 3-21G
 ****


