%nproc=1
%NoSave
%Mem=1900MB
#P OB98/GEN NMR

erre ene a

0 1
  C     -195.369     185.510     266.281
  O     -195.085     186.477     267.273
  H     -195.395     186.003     265.306
  H     -196.344     185.049     266.469
  H     -194.590     184.743     266.269
  P     -195.058     185.968     268.795
  C     -197.370     187.019     269.347
  O     -195.978     186.982     269.633
  C     -197.950     188.355     269.804
  O     -199.367     188.399     269.517
  C     -197.827     188.606     271.299
  O     -196.527     189.023     271.672
  C     -198.876     189.691     271.494
  O     -198.349     190.993     271.188
  C     -199.972     189.283     270.482
  N     -201.124     188.674     271.139
  C     -202.304     189.414     271.101
  O     -202.389     190.515     270.557
  N     -203.378     188.863     271.747
  C     -203.374     187.690     272.443
  O     -204.354     187.287     273.066
  C     -202.106     186.939     272.440
  C     -201.050     187.464     271.806
  O     -193.569     186.322     269.268
  O     -195.383     184.523     268.985
  H     -193.023     185.515     269.279
  H     -199.071     191.628     271.367
  H     -204.236     189.389     271.740
  H     -202.073     186.000     272.979
  H     -200.101     186.939     271.806
  H     -200.328     190.162     269.929
  H     -199.228     189.731     272.528
  H     -198.136     187.714     271.864
  H     -197.460     189.158     269.236
  H     -197.876     186.207     269.884
  H     -197.519     186.875     268.269
  P     -195.720     188.148     272.747
  C     -197.386     188.942     274.623
  O     -196.044     188.777     274.190
  O     -194.217     188.608     272.453
  O     -195.964     186.682     272.634
  H     -194.148     189.550     272.209
  H     -197.394     189.373     275.602
  H     -197.872     187.989     274.648
  H     -197.903     189.588     273.945

 6  7  8  9  10  11  12  13  14  15  16  27  31  32  33  34  35 0
 6-311+G(2d,p)
 ****
 36  37 0
 6-311+G(2d,p)
 ****
 1  2  3  4  5  17  18  19  20  21  22  23  24  25 0
 3-21G
 ****
 26  28  29  30  38  39  40  41  42  43  44  45 0
 3-21G
 ****


