%nproc=1
%NoSave
%Mem=1900MB
#P OB98/GEN NMR

erre ene a

0 1
  C     -326.946    -654.094    -154.454
  O     -327.863    -653.031    -154.231
  P     -328.635    -652.998    -152.825
  C     -329.208    -650.440    -153.124
  O     -329.671    -651.782    -152.928
  C     -330.308    -649.605    -153.785
  O     -330.472    -650.005    -155.160
  C     -331.679    -649.746    -153.150
  O     -331.788    -649.010    -151.946
  C     -332.580    -649.241    -154.283
  O     -332.597    -647.804    -154.303
  C     -331.859    -649.778    -155.524
  N     -332.458    -651.002    -156.067
  C     -333.412    -650.829    -157.061
  O     -333.753    -649.722    -157.486
  N     -333.987    -651.971    -157.549
  C     -333.755    -653.244    -157.094
  O     -334.332    -654.230    -157.535
  C     -332.764    -653.363    -156.016
  C     -332.165    -652.253    -155.564
  O     -327.474    -652.471    -151.860
  O     -329.221    -654.323    -152.454
  H     -326.821    -651.932    -152.338
  H     -332.873    -647.513    -153.408
  H     -334.670    -651.872    -158.290
  H     -332.557    -654.350    -155.629
  H     -331.441    -652.325    -154.759
  H     -331.841    -649.027    -156.317
  H     -333.613    -649.581    -154.178
  H     -331.895    -650.801    -152.952
  H     -329.982    -648.554    -153.777
  H     -328.328    -650.462    -153.761
  H     -328.930    -650.023    -152.153
  P     -332.854    -649.539    -150.866
  C     -331.585    -648.229    -148.990
  O     -332.809    -648.511    -149.639
  O     -332.119    -650.848    -150.314
  O     -334.212    -649.789    -151.444
  H     -331.166    -650.714    -150.163
  H     -331.681    -647.282    -148.457
  H     -330.768    -648.144    -149.708
  H     -331.365    -649.019    -148.270
  H     -326.508    -653.990    -155.425
  H     -327.463    -655.029    -154.394
  H     -326.177    -654.063    -153.711

 3  4  5  6  7  8  9  10  11  12  13  24  28  29  30  31  32 0
 6-311+G(2d,p)
 ****
 33  34 0
 6-311+G(2d,p)
 ****
 1  2  14  15  16  17  18  19  20  21  22  23  25  26  27 0
 3-21G
 ****
 35  36  37  38  39  40  41  42  43  44  45 0
 3-21G
 ****


