%nproc=1
%NoSave
%Mem=1900MB
#P OB98/GEN NMR

erre ene a

0 1
  C       72.120    -378.203    -117.478
  O       72.288    -377.373    -118.608
  H       72.701    -379.116    -117.626
  H       71.068    -378.474    -117.350
  H       72.488    -377.699    -116.579
  P       71.440    -376.012    -118.689
  C       73.546    -374.681    -117.972
  O       72.198    -375.014    -117.678
  C       73.742    -373.168    -117.906
  O       73.278    -372.638    -116.646
  C       75.193    -372.704    -118.008
  O       75.725    -372.796    -119.320
  C       75.043    -371.264    -117.541
  O       74.473    -370.472    -118.596
  C       74.043    -371.432    -116.369
  N       74.702    -371.530    -115.068
  C       75.528    -370.461    -114.698
  O       75.677    -369.499    -115.452
  N       76.198    -370.525    -113.499
  C       76.068    -371.572    -112.743
  N       76.791    -371.604    -111.586
  C       75.196    -372.712    -113.085
  C       74.552    -372.630    -114.246
  O       69.966    -376.138    -118.477
  O       71.827    -375.384    -120.110
  H       74.564    -369.540    -118.334
  H       71.317    -374.543    -120.213
  H       75.130    -373.562    -112.420
  H       73.907    -373.436    -114.574
  H       73.331    -370.596    -116.343
  H       75.995    -370.800    -117.263
  H       75.825    -373.241    -117.292
  H       73.120    -372.717    -118.692
  H       77.412    -370.823    -111.409
  H       73.783    -375.064    -118.972
  H       76.962    -372.475    -111.096
  H       74.217    -375.148    -117.245
  P       77.321    -372.820    -119.482
  C       77.587    -375.413    -119.441
  O       77.835    -374.176    -118.792
  O       77.802    -371.677    -118.476
  O       77.835    -372.611    -120.874
  H       77.914    -370.824    -118.934
  H       77.991    -376.211    -118.854
  H       78.051    -375.409    -120.405
  H       76.532    -375.552    -119.553

 6  7  8  9  10  11  12  13  14  15  16  26  30  31  32  33  35 0
 6-311+G(2d,p)
 ****
 37  38 0
 6-311+G(2d,p)
 ****
 1  2  3  4  5  17  18  19  20  21  22  23  24  25 0
 3-21G
 ****
 27  28  29  34  36  39  40  41  42  43  44  45  46 0
 3-21G
 ****


