%nproc=1
%NoSave
%Mem=1900MB
#P OB98/GEN NMR

erre ene a

0 1
  C      282.483     199.647     209.535
  O      283.284     200.670     210.104
  P      282.759     202.178     210.173
  C      281.083     201.441     212.057
  O      281.330     202.184     210.882
  C      280.006     202.155     212.880
  O      280.593     203.226     213.647
  C      278.922     202.756     211.984
  O      277.827     201.864     211.855
  C      278.574     204.043     212.705
  O      277.657     203.784     213.786
  C      279.953     204.471     213.264
  N      280.868     205.199     212.365
  C      282.138     205.553     212.812
  O      282.571     205.270     213.926
  N      282.898     206.281     211.932
  C      282.532     206.635     210.665
  O      283.107     207.477     209.987
  C      281.310     206.003     210.162
  C      280.533     205.347     211.027
  O      282.415     202.512     208.647
  O      283.714     203.164     210.760
  H      278.010     203.024     214.282
  H      283.142     203.012     208.231
  H      283.764     206.660     212.302
  H      281.052     206.141     209.120
  H      279.602     204.903     210.685
  H      279.837     205.080     214.169
  H      278.068     204.742     212.042
  H      279.341     203.007     211.000
  H      279.563     201.439     213.582
  H      282.007     201.342     212.639
  H      280.756     200.429     211.799
  P      276.986     201.833     210.496
  C      277.850     199.617     209.542
  O      277.899     201.027     209.454
  O      276.485     203.157     210.020
  O      275.786     200.826     210.829
  H      274.984     201.335     211.076
  H      278.365     199.192     208.677
  H      276.815     199.268     209.548
  H      278.359     199.288     210.454
  H      283.007     198.715     209.583
  H      282.272     199.886     208.514
  H      281.565     199.568     210.080

 3  4  5  6  7  8  9  10  11  12  13  23  28  29  30  31  32 0
 6-311+G(2d,p)
 ****
 33  34 0
 6-311+G(2d,p)
 ****
 1  2  14  15  16  17  18  19  20  21  22  24  25  26  27 0
 3-21G
 ****
 35  36  37  38  39  40  41  42  43  44  45 0
 3-21G
 ****


