%nproc=1
%NoSave
%Mem=1900MB
#P OB98/GEN NMR

erre ene a

0 1
  C     -290.248      90.129     205.897
  O     -289.507      88.986     205.533
  P     -290.248      87.602     205.213
  C     -292.043      86.179     206.388
  O     -291.091      87.229     206.529
  C     -293.174      86.356     207.397
  O     -293.965      87.535     207.092
  C     -294.184      85.219     207.405
  O     -293.736      83.953     207.839
  C     -295.334      85.849     208.173
  O     -295.110      85.794     209.582
  C     -295.274      87.314     207.673
  N     -296.345      87.611     206.722
  C     -297.551      88.028     207.274
  O     -297.738      88.153     208.485
  N     -298.562      88.275     206.387
  C     -298.499      88.103     205.034
  O     -299.460      88.299     204.299
  C     -297.206      87.642     204.511
  C     -296.202      87.420     205.363
  O     -289.365      86.509     204.713
  O     -291.399      88.029     204.183
  H     -295.060      84.852     209.836
  H     -292.033      88.682     204.531
  H     -299.448      88.566     206.766
  H     -297.120      87.508     203.440
  H     -295.238      87.078     205.000
  H     -295.365      88.009     208.516
  H     -296.284      85.339     207.978
  H     -294.536      85.069     206.374
  H     -292.732      86.511     208.384
  H     -291.545      85.220     206.575
  H     -292.423      86.165     205.361
  P     -294.432      82.578     207.408
  C     -296.923      82.009     206.975
  O     -295.981      82.648     207.810
  O     -293.693      81.321     207.735
  O     -294.499      82.739     205.811
  H     -294.428      81.857     205.399
  H     -297.924      82.196     207.372
  H     -296.750      80.931     206.959
  H     -296.871      82.412     205.960
  H     -289.580      90.947     206.069
  H     -290.801      89.926     206.790
  H     -290.925      90.381     205.108

 3  4  5  6  7  8  9  10  11  12  13  23  28  29  30  31  32 0
 6-311+G(2d,p)
 ****
 33  34 0
 6-311+G(2d,p)
 ****
 1  2  14  15  16  17  18  19  20  21  22  24  25  26  27 0
 3-21G
 ****
 35  36  37  38  39  40  41  42  43  44  45 0
 3-21G
 ****


