%nproc=1
%NoSave
%Mem=1900MB
#P OB98/GEN NMR

erre ene a

0 1
  C      -32.310    -100.942     -26.169
  O      -32.524    -101.111     -24.781
  H      -31.983    -101.896     -26.591
  H      -31.538    -100.191     -26.358
  H      -33.242    -100.645     -26.659
  P      -32.761     -99.797     -23.888
  C      -31.327    -100.800     -21.988
  O      -31.496     -99.716     -22.899
  C      -29.845    -101.143     -21.813
  O      -29.324    -101.723     -23.026
  C      -28.966     -99.934     -21.540
  O      -29.168     -99.347     -20.271
  C      -27.582    -100.442     -21.922
  O      -26.919    -101.129     -20.865
  C      -27.911    -101.434     -23.064
  N      -27.496    -100.925     -24.366
  C      -26.124    -100.824     -24.567
  O      -25.288    -101.116     -23.711
  N      -25.733    -100.331     -25.782
  C      -26.565     -99.892     -26.770
  O      -26.151     -99.420     -27.823
  C      -28.006     -99.999     -26.490
  C      -28.401    -100.504     -25.318
  O      -34.084     -99.717     -23.187
  O      -32.500     -98.593     -24.908
  H      -26.168    -101.612     -21.263
  H      -32.869     -97.746     -24.560
  H      -24.742    -100.260     -25.949
  H      -28.695     -99.657     -27.251
  H      -29.460    -100.592     -25.087
  H      -27.395    -102.388     -22.898
  H      -26.928     -99.625     -22.232
  H      -29.218     -99.158     -22.273
  H      -29.756    -101.887     -21.013
  H      -31.851    -101.667     -22.403
  H      -31.777    -100.544     -21.023
  P      -28.832     -97.819     -19.949
  C      -30.066     -97.763     -17.662
  O      -28.828     -97.631     -18.351
  O      -29.517     -96.788     -20.789
  O      -27.259     -97.759     -20.301
  H      -27.073     -96.871     -20.663
  H      -29.909     -97.613     -16.614
  H      -30.463     -98.743     -17.827
  H      -30.757     -97.032     -18.027

 6  7  8  9  10  11  12  13  14  15  16  26  31  32  33  34  35 0
 6-311+G(2d,p)
 ****
 36  37 0
 6-311+G(2d,p)
 ****
 1  2  3  4  5  17  18  19  20  21  22  23  24  25 0
 3-21G
 ****
 27  28  29  30  38  39  40  41  42  43  44  45 0
 3-21G
 ****


