%nproc=1
%NoSave
%Mem=1900MB
#P OB98/GEN NMR

erre ene a

0 1
  C     -285.063     123.542    -240.703
  O     -284.218     124.655    -240.937
  P     -283.022     124.473    -241.988
  C     -280.420     124.426    -241.822
  O     -281.668     124.340    -241.136
  C     -279.275     124.638    -240.826
  O     -279.431     125.947    -240.199
  C     -279.188     123.593    -239.701
  O     -277.789     123.412    -239.412
  C     -279.900     124.305    -238.563
  O     -279.643     123.734    -237.292
  C     -279.389     125.723    -238.765
  N     -279.362     129.409    -235.208
  C     -278.367     128.648    -235.726
  N     -278.453     127.691    -236.679
  C     -279.723     127.566    -237.107
  C     -280.832     128.258    -236.665
  C     -280.630     129.225    -235.665
  N     -281.632     129.994    -235.132
  N     -281.973     127.824    -237.325
  C     -281.551     126.893    -238.143
  N     -280.193     126.715    -238.076
  O     -282.879     125.938    -242.633
  O     -283.244     123.421    -243.032
  H     -280.110     124.235    -236.596
  H     -282.697     125.877    -243.593
  H     -277.364     128.829    -235.317
  H     -282.176     126.316    -238.823
  H     -278.341     125.850    -238.443
  H     -280.972     124.239    -238.717
  H     -279.639     122.628    -239.984
  H     -278.341     124.671    -241.397
  H     -280.452     125.269    -242.503
  H     -281.416     130.513    -234.286
  H     -282.587     129.697    -235.329
  H     -280.276     123.512    -242.411
  P     -277.192     121.912    -239.414
  C     -277.209     120.018    -237.677
  O     -277.677     121.310    -238.005
  O     -275.655     122.212    -239.133
  O     -277.477     121.093    -240.640
  H     -275.525     122.796    -238.372
  H     -277.521     119.772    -236.656
  H     -276.110     119.984    -237.723
  H     -277.632     119.280    -238.369
  H     -285.810     123.806    -239.984
  H     -284.482     122.725    -240.329
  H     -285.535     123.254    -241.619

 3  4  5  6  7  8  9  10  11  12  22  25  29  30  31  32 0
 6-311+G(2d,p)
 ****
 33  36  37 0
 6-311+G(2d,p)
 ****
 1  2  13  14  15  16  17  18  19  20  21  23  24  26 0
 3-21G
 ****
 27  28  34  35  38  39  40  41  42  43  44  45  46  47  48 0
 3-21G
 ****


