%nproc=1
%NoSave
%Mem=1900MB
#P OB98/GEN NMR

erre ene a

0 1
  C     -178.560      -4.437    -541.002
  O     -177.260      -4.014    -541.436
  P     -177.071      -3.761    -543.013
  C     -176.971      -5.170    -545.168
  O     -177.069      -5.179    -543.759
  C     -176.516      -6.541    -545.716
  O     -175.081      -6.708    -545.592
  C     -177.185      -7.727    -545.000
  O     -177.358      -8.768    -545.970
  C     -176.117      -8.161    -544.010
  O     -176.331      -9.502    -543.580
  C     -174.840      -7.914    -544.828
  N     -173.636      -7.814    -544.008
  C     -173.276      -8.936    -543.266
  O     -174.001      -9.937    -543.254
  N     -172.129      -8.888    -542.509
  C     -171.430      -7.797    -542.461
  N     -170.303      -7.814    -541.701
  C     -171.804      -6.564    -543.191
  C     -172.907      -6.649    -543.938
  O     -175.550      -3.259    -543.120
  O     -178.018      -2.741    -543.565
  H     -175.613      -9.733    -542.939
  H     -175.501      -2.438    -543.649
  H     -171.204      -5.673    -543.118
  H     -173.259      -5.808    -544.509
  H     -174.683      -8.736    -545.554
  H     -176.127      -7.512    -543.126
  H     -178.142      -7.484    -544.539
  H     -176.762      -6.585    -546.784
  H     -170.081      -8.673    -541.216
  H     -176.242      -4.411    -545.494
  H     -169.702      -7.025    -541.589
  H     -177.930      -4.873    -545.600
  P     -178.739      -8.813    -546.783
  C     -180.985     -10.022    -546.423
  O     -179.732      -9.684    -545.856
  O     -178.384      -9.865    -547.942
  O     -179.286      -7.542    -547.342
  H     -179.142      -9.934    -548.566
  H     -181.501     -10.703    -545.742
  H     -180.850     -10.511    -547.387
  H     -181.594      -9.115    -546.529
  H     -178.556      -4.570    -539.940
  H     -178.811      -5.363    -541.477
  H     -179.283      -3.694    -541.265

 3  4  5  6  7  8  9  10  11  12  13  21  23  27  28  29  30  32 0
 6-311+G(2d,p)
 ****
 34  35 0
 6-311+G(2d,p)
 ****
 1  2  14  15  16  17  18  19  20  22  24  25  26 0
 3-21G
 ****
 31  33  36  37  38  39  40  41  42  43  44  45  46 0
 3-21G
 ****


