%nproc=1
%NoSave
%Mem=1900MB
#P OB98/GEN NMR

erre ene a

0 1
  C       -8.076      13.580     -82.834
  O       -7.565      12.834     -81.743
  P       -6.002      12.993     -81.404
  C       -5.374      10.635     -82.297
  O       -5.217      12.042     -82.432
  C       -4.090       9.893     -82.669
  O       -3.912       9.956     -84.106
  C       -2.829      10.456     -82.010
  O       -1.972       9.358     -81.694
  C       -2.190      11.278     -83.114
  O       -0.785      11.427     -82.916
  C       -2.586      10.467     -84.360
  N       -2.548      11.272     -85.576
  C       -1.883      10.721     -86.676
  O       -1.298       9.643     -86.566
  N       -1.856      11.427     -87.854
  C       -2.352      12.624     -87.896
  N       -2.302      13.281     -89.086
  C       -2.951      13.290     -86.723
  C       -3.035      12.556     -85.615
  O       -5.859      12.224     -80.009
  O       -5.522      14.405     -81.326
  H       -0.393      11.757     -83.754
  H       -5.164      12.632     -79.456
  H       -3.317      14.304     -86.803
  H       -3.481      12.954     -84.712
  H       -1.917       9.607     -84.489
  H       -2.643      12.276     -83.146
  H       -3.043      11.030     -81.104
  H       -4.217       8.836     -82.404
  H       -1.872      12.810     -89.871
  H       -6.170      10.300     -82.968
  H       -2.662      14.218     -89.215
  H       -5.674      10.400     -81.270
  P       -1.017       9.502     -80.415
  C        1.085      10.110     -81.759
  O        0.102      10.566     -80.848
  O       -0.192       8.127     -80.475
  O       -1.650       9.692     -79.077
  H        0.392       8.060     -79.698
  H        1.692      10.962     -82.072
  H        0.615       9.668     -82.641
  H        1.733       9.376     -81.271
  H       -9.121      13.379     -82.945
  H       -7.562      13.300     -83.730
  H       -7.931      14.624     -82.651

 3  4  5  6  7  8  9  10  11  12  13  21  23  27  28  29  30  32 0
 6-311+G(2d,p)
 ****
 34  35 0
 6-311+G(2d,p)
 ****
 1  2  14  15  16  17  18  19  20  22  24  25  26 0
 3-21G
 ****
 31  33  36  37  38  39  40  41  42  43  44  45  46 0
 3-21G
 ****


