%nproc=1
%NoSave
%Mem=1900MB
#P OB98/GEN NMR

erre ene a

0 1
  C      643.299     118.767      56.457
  O      642.668     119.902      55.882
  P      643.465     121.278      55.642
  C      643.181     121.672      58.187
  O      643.067     122.219      56.888
  C      642.357     122.497      59.184
  O      642.440     121.863      60.489
  C      642.818     123.943      59.339
  O      641.644     124.745      59.557
  C      643.678     123.901      60.583
  O      643.814     125.177      61.206
  C      642.922     122.859      61.414
  N      643.752     122.254      62.450
  C      643.677     122.799      63.744
  O      642.961     123.763      63.982
  N      644.438     122.229      64.738
  C      645.258     121.258      64.455
  N      645.944     120.686      65.476
  C      645.450     120.733      63.080
  C      644.660     121.260      62.155
  O      643.267     121.892      54.307
  O      644.986     120.918      55.984
  H      642.918     125.514      61.398
  H      645.467     120.523      55.210
  H      646.170     119.953      62.887
  H      644.701     120.921      61.124
  H      642.031     123.311      61.874
  H      644.686     123.543      60.325
  H      643.348     124.329      58.451
  H      641.301     122.457      58.874
  H      645.657     120.956      66.422
  H      644.233     121.710      58.490
  H      646.335     119.760      65.390
  H      642.863     120.628      58.178
  P      641.151     125.719      58.380
  C      642.258     127.679      59.682
  O      641.143     127.221      58.940
  O      639.576     125.377      58.326
  O      641.770     125.500      57.038
  H      639.244     125.577      57.429
  H      642.081     128.713      59.978
  H      643.155     127.633      59.067
  H      642.389     127.071      60.585
  H      642.595     117.965      56.527
  H      643.656     119.015      57.435
  H      644.122     118.467      55.842

 3  4  5  6  7  8  9  10  11  12  13  23  27  28  29  30  32 0
 6-311+G(2d,p)
 ****
 34  35 0
 6-311+G(2d,p)
 ****
 1  2  14  15  16  17  18  19  20  21  22  24  25  26 0
 3-21G
 ****
 31  33  36  37  38  39  40  41  42  43  44  45  46 0
 3-21G
 ****


