%nproc=1
%NoSave
%Mem=1900MB
#P OB98/GEN NMR

erre ene a

0 1
  C      -34.175    -882.729     -52.910
  O      -33.492    -881.542     -53.350
  P      -33.744    -881.007     -54.843
  C      -31.377    -880.903     -55.934
  O      -32.461    -880.192     -55.376
  C      -30.129    -880.016     -56.067
  O      -30.410    -878.878     -56.940
  C      -29.611    -879.435     -54.741
  O      -28.189    -879.332     -54.838
  C      -30.241    -878.054     -54.716
  O      -29.586    -877.152     -53.829
  C      -30.130    -877.681     -56.195
  N      -31.011    -876.582     -56.608
  C      -30.543    -875.704     -57.578
  O      -29.406    -875.745     -58.072
  N      -31.420    -874.724     -57.969
  C      -32.677    -874.513     -57.458
  O      -33.399    -873.598     -57.821
  C      -33.096    -875.475     -56.410
  C      -32.253    -876.442     -56.044
  O      -34.814    -879.830     -54.594
  O      -34.293    -882.010     -55.807
  H      -28.739    -876.913     -54.236
  H      -35.535    -879.901     -55.248
  H      -31.104    -874.077     -58.675
  H      -34.082    -875.341     -55.990
  H      -32.563    -877.160     -55.303
  H      -29.082    -877.414     -56.421
  H      -31.287    -878.140     -54.387
  H      -29.887    -880.047     -53.867
  H      -29.338    -880.595     -56.550
  H      -31.647    -881.273     -56.927
  H      -31.146    -881.777     -55.290
  P      -27.278    -880.218     -53.848
  C      -25.814    -878.207     -53.041
  O      -25.873    -879.455     -53.694
  O      -26.930    -881.455     -54.817
  O      -27.963    -880.636     -52.593
  H      -26.659    -881.167     -55.706
  H      -26.457    -878.192     -52.153
  H      -26.112    -877.416     -53.716
  H      -24.780    -878.036     -52.728
  H      -33.898    -882.946     -51.900
  H      -33.903    -883.551     -53.539
  H      -35.232    -882.573     -52.964

 3  4  5  6  7  8  9  10  11  12  13  23  28  29  30  31  32 0
 6-311+G(2d,p)
 ****
 33  34 0
 6-311+G(2d,p)
 ****
 1  2  14  15  16  17  18  19  20  21  22  24  25  26 0
 3-21G
 ****
 27  35  36  37  38  39  40  41  42  43  44  45 0
 3-21G
 ****


