%nproc=1
%NoSave
%Mem=1900MB
#P OB98/GEN NMR

erre ene a

0 1
  C     -165.453     -10.100    -174.253
  O     -165.044      -8.818    -173.823
  H     -166.460     -10.292    -173.870
  H     -164.773     -10.858    -173.851
  H     -165.473     -10.164    -175.343
  P     -163.755      -8.149    -174.499
  C     -163.513      -5.705    -175.293
  O     -163.836      -6.573    -174.217
  C     -163.897      -4.256    -174.965
  O     -165.338      -4.178    -174.803
  C     -163.277      -3.795    -173.638
  O     -163.063      -2.388    -173.602
  C     -164.352      -4.163    -172.618
  O     -164.261      -3.405    -171.418
  C     -165.626      -3.906    -173.424
  N     -170.575      -4.998    -174.010
  C     -169.845      -3.950    -174.538
  N     -170.518      -3.082    -175.329
  N     -168.573      -3.760    -174.297
  C     -168.047      -4.660    -173.433
  C     -168.674      -5.723    -172.824
  C     -170.073      -5.950    -173.127
  O     -170.770      -6.844    -172.667
  N     -167.809      -6.412    -172.004
  C     -166.671      -5.769    -172.108
  N     -166.752      -4.708    -172.981
  O     -164.066      -8.236    -176.072
  O     -162.442      -8.792    -174.163
  H     -164.601      -2.511    -171.606
  H     -163.237      -8.192    -176.583
  H     -171.546      -5.116    -174.250
  H     -165.758      -6.025    -171.592
  H     -165.919      -2.844    -173.345
  H     -164.223      -5.217    -172.350
  H     -171.530      -3.085    -175.378
  H     -162.339      -4.306    -173.410
  H     -170.090      -2.163    -175.467
  H     -163.633      -3.596    -175.800
  H     -164.061      -6.061    -176.172
  H     -162.450      -5.775    -175.532
  P     -161.571      -1.842    -173.388
  C     -160.576       0.502    -174.101
  O     -161.562      -0.245    -173.431
  O     -160.813      -2.270    -174.727
  O     -160.889      -2.379    -172.159
  H     -160.108      -2.912    -174.529
  H     -160.782       1.546    -173.989
  H     -160.580       0.247    -175.140
  H     -159.616       0.281    -173.683

 6  7  8  9  10  11  12  13  14  15  26  29  33  34 0
 6-311+G(2d,p)
 ****
 36  38  39  40  41 0
 6-311+G(2d,p)
 ****
 1  2  3  4  5  16  17  18  19  20  21  22  23  24  25 0
 3-21G
 ****
 27  28  30  31  32  35  37  42  43  44  45  46  47 0
 3-21G
 ****
 48  49 0
 3-21G
 ****


