%nproc=1
%NoSave
%Mem=1900MB
#P OB98/GEN NMR

erre ene a

0 1
  C      -87.238    -198.057      32.396
  O      -88.020    -198.497      33.488
  H      -86.274    -198.571      32.427
  H      -87.061    -196.981      32.467
  H      -87.728    -198.292      31.447
  P      -89.544    -198.012      33.591
  C      -90.756    -195.740      33.728
  O      -89.514    -196.426      33.810
  C      -90.955    -194.875      34.970
  O      -90.054    -193.745      34.939
  C      -92.354    -194.285      35.093
  O      -93.282    -195.256      35.534
  C      -92.101    -193.152      36.073
  O      -92.064    -193.638      37.424
  C      -90.708    -192.654      35.627
  N      -90.774    -191.461      34.785
  C      -91.048    -190.260      35.430
  O      -91.264    -190.177      36.638
  N      -91.098    -189.151      34.629
  C      -91.016    -189.143      33.267
  O      -91.156    -188.130      32.588
  C      -90.749    -190.443      32.637
  C      -90.640    -191.525      33.411
  O      -90.398    -198.767      34.552
  O      -90.087    -198.155      32.090
  H      -92.933    -194.052      37.591
  H      -90.661    -198.941      32.028
  H      -91.311    -188.274      35.076
  H      -90.662    -190.475      31.559
  H      -90.450    -192.492      32.964
  H      -90.089    -192.421      36.502
  H      -92.876    -192.386      36.030
  H      -92.667    -193.857      34.133
  H      -90.707    -195.479      35.853
  H      -91.563    -196.478      33.666
  H      -90.765    -195.127      32.820
  P      -94.852    -194.971      35.415
  C      -96.580    -193.443      36.547
  O      -95.259    -193.971      36.599
  O      -95.713    -196.182      35.287
  O      -94.973    -194.050      34.111
  H      -95.530    -194.500      33.447
  H      -96.737    -192.793      37.382
  H      -97.287    -194.246      36.582
  H      -96.709    -192.893      35.638

 6  7  8  9  10  11  12  13  14  15  16  26  31  32  33  34  35 0
 6-311+G(2d,p)
 ****
 36  37 0
 6-311+G(2d,p)
 ****
 1  2  3  4  5  17  18  19  20  21  22  23  24  25 0
 3-21G
 ****
 27  28  29  30  38  39  40  41  42  43  44  45 0
 3-21G
 ****


