%nproc=1
%NoSave
%Mem=1900MB
#P OB98/GEN NMR

erre ene a

0 1
  C     -168.187     -59.055    -215.057
  O     -166.949     -58.597    -215.565
  H     -168.558     -59.885    -215.664
  H     -168.038     -59.405    -214.033
  H     -168.919     -58.242    -215.050
  P     -166.960     -58.008    -217.058
  C     -165.656     -60.121    -217.811
  O     -165.731     -58.704    -217.821
  C     -164.448     -60.587    -218.617
  O     -164.266     -62.009    -218.462
  C     -164.554     -60.350    -220.120
  O     -164.248     -59.007    -220.465
  C     -163.495     -61.312    -220.634
  O     -162.188     -60.730    -220.471
  C     -163.660     -62.508    -219.683
  N     -163.694     -66.868    -222.360
  C     -162.684     -66.089    -221.918
  N     -162.752     -64.954    -221.193
  C     -164.029     -64.650    -220.910
  C     -165.164     -65.357    -221.271
  C     -164.964     -66.516    -222.038
  N     -166.013     -67.269    -222.542
  N     -166.302     -64.724    -220.809
  C     -165.860     -63.645    -220.198
  N     -164.496     -63.560    -220.226
  O     -166.472     -56.496    -216.846
  O     -168.276     -58.073    -217.756
  H     -162.091     -60.517    -219.525
  H     -167.251     -55.911    -216.809
  H     -161.685     -66.419    -222.187
  H     -166.488     -62.900    -219.728
  H     -162.697     -62.954    -219.408
  H     -163.612     -61.554    -221.694
  H     -165.533     -60.654    -220.508
  H     -163.558     -60.094    -218.207
  H     -166.567     -60.538    -218.252
  H     -165.787     -67.748    -223.410
  H     -166.916     -66.813    -222.494
  H     -165.575     -60.461    -216.774
  P     -165.432     -58.097    -221.047
  C     -164.868     -58.423    -223.551
  O     -164.915     -57.521    -222.454
  O     -165.411     -56.822    -220.081
  O     -166.778     -58.739    -221.066
  H     -166.293     -56.698    -219.678
  H     -164.508     -57.911    -224.419
  H     -165.850     -58.803    -223.743
  H     -164.211     -59.235    -223.318

 6  7  8  9  10  11  12  13  14  15  25  28  32  33  34  35 0
 6-311+G(2d,p)
 ****
 36  39  40 0
 6-311+G(2d,p)
 ****
 1  2  3  4  5  16  17  18  19  20  21  22  23  24 0
 3-21G
 ****
 26  27  29  30  31  37  38  41  42  43  44  45  46  47  48 0
 3-21G
 ****


