%nproc=1
%NoSave
%Mem=1900MB
#P OB98/GEN NMR

erre ene a

0 1
  C     -353.148    -292.479    1121.817
  O     -353.081    -292.283    1120.428
  P     -351.617    -292.239    1119.753
  C     -351.815    -294.003    1117.832
  O     -351.341    -293.702    1119.145
  C     -350.702    -293.803    1116.818
  O     -349.651    -294.774    1117.001
  C     -351.138    -293.929    1115.356
  O     -351.857    -292.785    1114.942
  C     -349.788    -294.124    1114.691
  O     -349.124    -292.858    1114.537
  C     -349.048    -294.996    1115.701
  N     -346.495    -298.969    1113.720
  C     -346.160    -297.685    1113.858
  N     -346.899    -296.676    1114.364
  C     -348.095    -297.123    1114.792
  C     -348.591    -298.431    1114.682
  C     -347.725    -299.367    1114.126
  N     -348.058    -300.709    1113.977
  N     -349.862    -298.504    1115.189
  C     -350.144    -297.298    1115.595
  N     -349.113    -296.415    1115.378
  O     -350.641    -292.176    1121.021
  O     -351.388    -291.106    1118.803
  H     -349.763    -292.246    1114.144
  H     -349.844    -291.641    1120.830
  H     -345.154    -297.392    1113.514
  H     -351.073    -296.970    1116.041
  H     -347.987    -294.731    1115.801
  H     -349.873    -294.579    1113.683
  H     -351.770    -294.830    1115.222
  H     -350.281    -292.786    1116.997
  H     -352.654    -293.346    1117.593
  H     -347.441    -301.286    1113.438
  H     -349.022    -300.976    1114.157
  H     -352.184    -295.052    1117.816
  P     -352.741    -292.922    1113.585
  C     -354.982    -292.673    1114.814
  O     -354.129    -293.532    1114.092
  O     -352.034    -294.170    1112.865
  O     -352.834    -291.667    1112.774
  H     -351.904    -294.921    1113.494
  H     -355.909    -293.192    1115.038
  H     -355.210    -291.786    1114.215
  H     -354.503    -292.355    1115.753
  H     -354.172    -292.487    1122.127
  H     -352.631    -291.686    1122.315
  H     -352.692    -293.414    1122.068

 3  4  5  6  7  8  9  10  11  12  22  25  29  30  31  32 0
 6-311+G(2d,p)
 ****
 33  36  37 0
 6-311+G(2d,p)
 ****
 1  2  13  14  15  16  17  18  19  20  21  23  24  26 0
 3-21G
 ****
 27  28  34  35  38  39  40  41  42  43  44  45  46  47  48 0
 3-21G
 ****


