%nproc=1
%NoSave
%Mem=1900MB
#P OB98/GEN NMR

erre ene a

0 1
  C     -365.774    -125.153    -254.477
  O     -366.698    -124.092    -254.619
  H     -365.017    -125.061    -255.258
  H     -366.281    -126.116    -254.585
  H     -365.286    -125.095    -253.501
  P     -367.923    -124.064    -253.582
  C     -369.588    -122.817    -255.103
  O     -368.738    -122.733    -253.966
  C     -369.664    -121.465    -255.816
  O     -370.401    -120.541    -254.976
  C     -368.291    -120.846    -256.096
  O     -368.318    -120.196    -257.366
  C     -368.138    -119.810    -254.997
  O     -367.253    -118.754    -255.364
  C     -369.586    -119.374    -254.775
  N     -370.146    -115.082    -252.074
  C     -370.097    -115.314    -253.405
  N     -369.962    -116.496    -254.040
  C     -369.920    -117.510    -253.158
  C     -369.952    -117.427    -251.776
  C     -370.066    -116.138    -251.233
  N     -370.088    -115.892    -249.878
  N     -369.840    -118.685    -251.217
  C     -369.754    -119.514    -252.243
  N     -369.779    -118.846    -253.436
  O     -367.556    -124.195    -252.141
  O     -368.863    -125.222    -254.157
  H     -366.464    -119.149    -255.787
  H     -368.937    -125.172    -255.129
  H     -370.171    -114.431    -254.040
  H     -369.656    -120.593    -252.174
  H     -369.901    -118.598    -255.483
  H     -367.734    -120.288    -254.096
  H     -367.489    -121.584    -256.074
  H     -370.240    -121.586    -256.740
  H     -370.595    -123.129    -254.800
  H     -370.183    -114.934    -249.570
  H     -370.048    -116.668    -249.232
  H     -369.176    -123.577    -255.777
  P     -368.637    -121.076    -258.664
  C     -367.155    -120.569    -260.722
  O     -368.311    -120.196    -259.971
  O     -369.954    -121.776    -258.678
  O     -367.428    -122.137    -258.665
  H     -367.768    -123.000    -258.970
  H     -367.047    -119.913    -261.560
  H     -367.264    -121.575    -261.069
  H     -366.287    -120.498    -260.100

 6  7  8  9  10  11  12  13  14  15  25  28  32  33  34  35 0
 6-311+G(2d,p)
 ****
 36  39  40 0
 6-311+G(2d,p)
 ****
 1  2  3  4  5  16  17  18  19  20  21  22  23  24 0
 3-21G
 ****
 26  27  29  30  31  37  38  41  42  43  44  45  46  47 0
 3-21G
 ****
 48 0
 3-21G
 ****


