%nproc=1
%NoSave
%Mem=1900MB
#P OB98/GEN NMR

erre ene a

0 1
  C     -104.019      68.069    -107.524
  O     -104.029      66.656    -107.480
  H     -104.889      68.445    -106.978
  H     -104.083      68.409    -108.560
  H     -103.115      68.469    -107.057
  P     -102.731      65.853    -107.969
  C     -103.393      63.740    -106.641
  O     -103.107      64.293    -107.920
  C     -104.273      62.493    -106.776
  O     -105.622      62.919    -107.147
  C     -103.793      61.497    -107.851
  O     -104.153      60.181    -107.405
  C     -104.637      61.922    -109.040
  O     -104.621      60.961    -110.062
  C     -105.973      62.176    -108.332
  N     -106.936      62.903    -109.151
  C     -107.604      62.189    -110.141
  O     -107.442      60.985    -110.347
  N     -108.473      62.912    -110.913
  C     -108.728      64.249    -110.798
  O     -109.532      64.844    -111.503
  C     -107.967      64.956    -109.752
  C     -107.121      64.262    -108.988
  O     -101.453      66.215    -107.291
  O     -102.669      66.156    -109.542
  H     -102.037      66.881    -109.709
  H     -104.746      60.060    -109.691
  H     -108.966      62.411    -111.636
  H     -108.130      66.021    -109.651
  H     -106.543      64.750    -108.210
  H     -106.422      61.233    -108.003
  H     -104.247      62.848    -109.470
  H     -102.714      61.544    -108.026
  H     -104.352      62.009    -105.795
  H     -103.911      64.502    -106.049
  H     -102.450      63.480    -106.144
  P     -103.076      59.027    -107.103
  C     -104.214      58.393    -104.879
  O     -103.731      57.929    -106.132
  O     -101.763      59.549    -106.611
  O     -102.885      58.247    -108.489
  H     -101.953      57.966    -108.575
  H     -104.624      57.572    -104.328
  H     -104.974      59.129    -105.040
  H     -103.408      58.827    -104.325

 6  7  8  9  10  11  12  13  14  15  16  27  31  32  33  34  35 0
 6-311+G(2d,p)
 ****
 36  37 0
 6-311+G(2d,p)
 ****
 1  2  3  4  5  17  18  19  20  21  22  23  24  25 0
 3-21G
 ****
 26  28  29  30  38  39  40  41  42  43  44  45 0
 3-21G
 ****


