%nproc=1
%NoSave
%Mem=1900MB
#P OB98/GEN NMR

erre ene a

0 1
  C      149.965     101.119    -109.376
  O      150.346     101.213    -108.018
  H      149.303     100.258    -109.496
  H      150.839     100.982    -110.019
  H      149.421     102.021    -109.676
  P      151.518     102.240    -107.631
  C      150.666     102.825    -105.263
  O      150.853     103.282    -106.602
  C      149.305     103.269    -104.718
  O      148.246     102.539    -105.373
  C      149.119     102.991    -103.234
  O      149.921     103.793    -102.393
  C      147.604     103.022    -103.082
  O      147.081     104.331    -102.876
  C      147.136     102.482    -104.456
  N      146.580     101.136    -104.354
  C      145.412     101.017    -103.611
  O      144.865     101.966    -103.045
  N      144.898      99.755    -103.501
  C      145.462      98.618    -104.008
  O      144.976      97.504    -103.840
  C      146.712      98.803    -104.763
  C      147.209     100.036    -104.901
  O      152.219     102.893    -108.785
  O      152.488     101.376    -106.696
  H      147.556     104.929    -103.487
  H      153.373     101.805    -106.608
  H      144.046      99.649    -102.975
  H      147.187      97.924    -105.179
  H      148.131     100.199    -105.453
  H      146.356     103.134    -104.873
  H      147.274     102.410    -102.240
  H      149.424     101.956    -103.042
  H      149.173     104.334    -104.941
  H      151.459     103.265    -104.649
  H      150.756     101.735    -105.229
  P      151.167     103.225    -101.567
  C      152.892     105.156    -101.798
  O      152.512     103.845    -102.198
  O      151.139     101.771    -101.224
  O      151.031     104.051    -100.186
  H      151.334     103.466     -99.465
  H      153.798     105.432    -102.295
  H      153.046     105.175    -100.739
  H      152.118     105.847    -102.058

 6  7  8  9  10  11  12  13  14  15  16  26  31  32  33  34  35 0
 6-311+G(2d,p)
 ****
 36  37 0
 6-311+G(2d,p)
 ****
 1  2  3  4  5  17  18  19  20  21  22  23  24  25 0
 3-21G
 ****
 27  28  29  30  38  39  40  41  42  43  44  45 0
 3-21G
 ****


