%nproc=1
%NoSave
%Mem=1900MB
#P OB98/GEN NMR

erre ene a

0 1
  C      529.891    -366.061     -18.281
  O      529.119    -365.532     -17.222
  H      529.335    -365.941     -19.215
  H      530.078    -367.125     -18.120
  H      530.845    -365.529     -18.373
  P      529.775    -365.412     -15.767
  C      528.092    -363.457     -15.652
  O      528.857    -364.407     -14.924
  C      528.183    -362.075     -14.996
  O      527.520    -362.125     -13.697
  C      529.633    -361.580     -14.755
  O      529.606    -360.154     -14.839
  C      529.854    -362.049     -13.330
  O      531.006    -361.500     -12.750
  C      528.490    -361.669     -12.720
  N      528.213    -362.238     -11.405
  C      528.458    -361.443     -10.294
  O      528.892    -360.290     -10.340
  N      528.191    -362.016      -9.076
  C      527.696    -363.267      -8.879
  O      527.442    -363.722      -7.762
  C      527.460    -364.072     -10.095
  C      527.718    -363.525     -11.281
  O      531.238    -365.109     -15.740
  O      529.458    -366.835     -15.097
  H      530.253    -367.395     -15.125
  H      530.928    -360.524     -12.737
  H      528.363    -361.449      -8.263
  H      527.074    -365.070      -9.972
  H      527.549    -364.078     -12.198
  H      528.401    -360.579     -12.671
  H      529.995    -363.140     -13.314
  H      530.340    -361.981     -15.482
  H      527.623    -361.354     -15.614
  H      527.043    -363.791     -15.652
  H      528.448    -363.409     -16.681
  P      530.281    -359.325     -16.031
  C      527.925    -358.292     -16.304
  O      529.331    -358.077     -16.380
  O      530.643    -360.154     -17.225
  O      531.586    -358.643     -15.384
  H      532.246    -358.480     -16.088
  H      527.412    -357.388     -16.558
  H      527.662    -358.583     -15.309
  H      527.645    -359.066     -16.988

 6  7  8  9  10  11  12  13  14  15  16  27  31  32  33  34  35 0
 6-311+G(2d,p)
 ****
 36  37 0
 6-311+G(2d,p)
 ****
 1  2  3  4  5  17  18  19  20  21  22  23  24  25 0
 3-21G
 ****
 26  28  29  30  38  39  40  41  42  43  44  45 0
 3-21G
 ****


