%nproc=1
%NoSave
%Mem=1900MB
#P OB98/GEN NMR

erre ene a

0 1
  C     -412.171    -138.068     489.113
  O     -412.813    -136.948     488.544
  H     -411.830    -137.808     490.115
  H     -411.306    -138.349     488.505
  H     -412.864    -138.914     489.183
  P     -413.501    -137.147     487.108
  C     -411.951    -135.769     485.527
  O     -412.315    -137.048     486.026
  C     -410.571    -135.845     484.864
  O     -410.721    -136.399     483.529
  C     -409.892    -134.475     484.718
  O     -408.484    -134.628     484.923
  C     -410.166    -134.106     483.270
  O     -409.237    -133.169     482.734
  C     -410.107    -135.482     482.603
  N     -410.792    -135.507     481.309
  C     -410.113    -134.993     480.211
  O     -408.954    -134.582     480.234
  N     -410.831    -134.954     479.038
  C     -412.126    -135.345     478.871
  O     -412.715    -135.264     477.804
  C     -412.796    -135.877     480.070
  C     -412.108    -135.929     481.216
  O     -414.306    -135.779     486.890
  O     -414.369    -138.351     486.964
  H     -415.213    -135.858     487.234
  H     -409.527    -132.941     481.825
  H     -410.350    -134.578     478.229
  H     -413.822    -136.193     479.978
  H     -412.574    -136.307     482.120
  H     -409.064    -135.798     482.475
  H     -411.171    -133.674     483.180
  H     -410.283    -133.729     485.414
  H     -409.940    -136.540     485.434
  H     -411.915    -135.057     486.351
  H     -412.700    -135.441     484.801
  P     -407.955    -134.630     486.441
  C     -406.432    -132.503     486.501
  O     -407.683    -133.092     486.815
  O     -406.496    -135.259     486.270
  O     -408.860    -135.367     487.373
  H     -406.043    -134.986     485.452
  H     -406.429    -131.482     486.820
  H     -406.272    -132.547     485.444
  H     -405.651    -133.036     487.002

 6  7  8  9  10  11  12  13  14  15  16  27  31  32  33  34  35 0
 6-311+G(2d,p)
 ****
 36  37 0
 6-311+G(2d,p)
 ****
 1  2  3  4  5  17  18  19  20  21  22  23  24  25 0
 3-21G
 ****
 26  28  29  30  38  39  40  41  42  43  44  45 0
 3-21G
 ****


