%nproc=1
%NoSave
%Mem=1900MB
#P OB98/GEN NMR

erre ene a

0 1
  C      133.286    -187.443      -9.959
  O      132.386    -188.445     -10.374
  H      133.854    -187.820      -9.103
  H      132.743    -186.549      -9.642
  H      133.984    -187.194     -10.761
  P      131.386    -188.147     -11.594
  C      132.110    -187.897     -14.044
  O      132.123    -188.738     -12.899
  C      131.832    -188.701     -15.314
  O      132.919    -189.639     -15.543
  C      130.527    -189.511     -15.260
  O      129.790    -189.321     -16.470
  C      131.005    -190.952     -15.176
  O      130.043    -191.888     -15.656
  C      132.311    -190.870     -15.972
  N      133.168    -192.025     -15.739
  C      133.083    -193.055     -16.681
  O      132.321    -192.956     -17.643
  N      133.820    -194.194     -16.483
  C      134.541    -194.315     -15.412
  N      135.223    -195.481     -15.262
  C      134.637    -193.264     -14.379
  C      133.935    -192.154     -14.605
  O      130.946    -186.727     -11.707
  O      130.170    -189.167     -11.386
  H      129.935    -191.754     -16.623
  H      129.379    -188.820     -11.860
  H      135.248    -193.416     -13.502
  H      133.942    -191.328     -13.903
  H      132.110    -190.794     -17.048
  H      131.222    -191.200     -14.128
  H      129.894    -189.249     -14.413
  H      131.836    -188.013     -16.169
  H      135.122    -196.178     -15.991
  H      133.078    -187.389     -14.117
  H      135.796    -195.698     -14.460
  H      131.320    -187.150     -13.915
  P      128.269    -188.838     -16.304
  C      127.077    -186.535     -16.232
  O      128.199    -187.280     -16.678
  O      128.044    -188.866     -14.720
  O      127.287    -189.709     -17.014
  H      127.436    -189.594     -14.485
  H      127.171    -185.520     -16.556
  H      127.031    -186.565     -15.163
  H      126.183    -186.958     -16.640

 6  7  8  9  10  11  12  13  14  15  16  26  30  31  32  33  35 0
 6-311+G(2d,p)
 ****
 37  38 0
 6-311+G(2d,p)
 ****
 1  2  3  4  5  17  18  19  20  21  22  23  24  25 0
 3-21G
 ****
 27  28  29  34  36  39  40  41  42  43  44  45  46 0
 3-21G
 ****


