%nproc=1
%NoSave
%Mem=1900MB
#P OB98/GEN NMR

erre ene a

0 1
  C     -138.477      98.034     175.208
  O     -137.989      97.581     176.454
  H     -137.740      97.797     174.435
  H     -138.622      99.119     175.233
  H     -139.419      97.537     174.964
  P     -138.946      97.796     177.723
  C     -137.334      99.631     178.625
  O     -138.021      98.411     178.883
  C     -136.487     100.013     179.834
  O     -137.349     100.288     180.961
  C     -135.537      98.915     180.302
  O     -134.367      98.847     179.502
  C     -135.266      99.351     181.736
  O     -134.236     100.349     181.799
  C     -136.608      99.962     182.158
  N     -137.442      98.443     186.954
  C     -136.656      99.416     186.435
  N     -136.505      99.769     185.141
  C     -137.280      99.008     184.349
  C     -138.125      97.978     184.734
  C     -138.196      97.701     186.110
  N     -138.967      96.691     186.634
  N     -138.718      97.402     183.629
  C     -138.249      98.076     182.598
  N     -137.381      99.058     182.988
  O     -139.229      96.298     178.217
  O     -140.207      98.545     177.451
  H     -134.547     101.104     181.261
  H     -140.068      95.981     177.832
  H     -136.068      99.979     187.156
  H     -138.496      97.886     181.558
  H     -136.483     100.892     182.723
  H     -134.942      98.511     182.352
  H     -136.053      97.948     180.318
  H     -135.931     100.931     179.595
  H     -138.068     100.424     178.433
  H     -136.707      99.503     177.735
  H     -138.949      96.533     187.628
  H     -139.449      96.066     186.001
  P     -133.996      97.453     178.808
  C     -131.631      97.147     179.842
  O     -132.399      97.387     178.675
  O     -134.495      97.650     177.302
  O     -134.612      96.255     179.449
  H     -135.359      97.213     177.169
  H     -130.592      97.132     179.588
  H     -131.908      96.204     180.264
  H     -131.813      97.924     180.555

 6  7  8  9  10  11  12  13  14  15  25  28  32  33  34  35 0
 6-311+G(2d,p)
 ****
 36  37  40 0
 6-311+G(2d,p)
 ****
 1  2  3  4  5  16  17  18  19  20  21  22  23  24 0
 3-21G
 ****
 26  27  29  30  31  38  39 41  42  43  44  45  46  47  48 0
 3-21G
 ****


