%nproc=1
%NoSave
%Mem=1900MB
#P OB98/GEN NMR

erre ene a

0 1
  C      178.382    -841.496    1112.875
  O      178.402    -842.895    1112.800
  P      179.658    -843.716    1113.402
  C      178.644    -845.813    1112.279
  O      179.833    -845.056    1112.539
  C      178.788    -846.625    1110.994
  O      178.775    -845.737    1109.841
  C      180.087    -847.398    1110.896
  O      180.092    -848.525    1111.740
  C      180.106    -847.720    1109.402
  O      179.269    -848.850    1109.100
  C      179.512    -846.436    1108.794
  N      180.518    -845.568    1108.202
  C      180.482    -845.443    1106.809
  O      179.675    -846.121    1106.145
  N      181.355    -844.587    1106.195
  C      182.268    -843.973    1106.909
  N      183.084    -843.090    1106.272
  C      182.448    -844.214    1108.360
  C      181.539    -844.987    1108.955
  O      179.642    -843.928    1114.885
  O      180.938    -842.847    1112.966
  H      181.498    -842.708    1113.754
  H      179.673    -849.628    1109.566
  H      183.269    -843.746    1108.881
  H      181.559    -845.208    1109.996
  H      178.758    -846.690    1108.017
  H      181.116    -847.954    1109.040
  H      180.930    -846.748    1111.135
  H      177.924    -847.304    1110.921
  H      182.929    -842.951    1105.272
  H      177.809    -845.124    1112.200
  H      183.577    -842.349    1106.763
  H      178.448    -846.480    1113.139
  P      181.339    -848.656    1112.756
  C      180.471    -850.811    1113.894
  O      181.491    -850.203    1113.127
  O      180.781    -847.994    1114.103
  O      182.596    -847.982    1112.278
  H      181.499    -847.490    1114.544
  H      180.523    -851.900    1113.755
  H      179.483    -850.496    1113.532
  H      180.574    -850.578    1114.942
  H      177.481    -841.128    1112.430
  H      179.227    -841.099    1112.352
  H      178.423    -841.193    1113.900

 3  4  5  6  7  8  9  10  11  12  13  24  27  28  29  30  32 0
 6-311+G(2d,p)
 ****
 34  35 0
 6-311+G(2d,p)
 ****
 1  2  14  15  16  17  18  19  20  21  22  23  25  26 0
 3-21G
 ****
 31  33  36  37  38  39  40  41  42  43  44  45  46 0
 3-21G
 ****


