%nproc=1
%NoSave
%Mem=1900MB
#P OB98/GEN NMR

erre ene a

0 1
  C      -48.205     139.968     -91.673
  O      -47.770     141.319     -91.687
  P      -46.267     141.634     -91.230
  C      -46.827     143.078     -89.143
  O      -46.273     143.039     -90.451
  C      -47.500     144.425     -88.878
  O      -46.591     145.503     -89.224
  C      -48.788     144.640     -89.686
  O      -49.712     145.415     -88.910
  C      -48.335     145.503     -90.846
  O      -49.421     146.243     -91.403
  C      -47.266     146.359     -90.164
  N      -46.127     150.462     -92.894
  C      -47.003     150.327     -91.837
  N      -47.739     151.420     -91.522
  N      -47.143     149.230     -91.146
  C      -46.350     148.218     -91.576
  C      -45.431     148.233     -92.604
  C      -45.296     149.453     -93.368
  O      -44.559     149.628     -94.335
  N      -44.788     147.027     -92.721
  C      -45.344     146.266     -91.796
  N      -46.321     146.933     -91.101
  O      -45.538     141.978     -92.615
  O      -45.579     140.513     -90.527
  H      -49.051     146.791     -92.120
  H      -44.970     141.230     -92.883
  H      -46.061     151.325     -93.405
  H      -45.096     145.227     -91.608
  H      -47.716     147.186     -89.597
  H      -47.903     144.874     -91.635
  H      -47.725     152.274     -92.060
  H      -49.275     143.716     -90.016
  H      -48.419     151.336     -90.780
  H      -47.702     144.510     -87.801
  H      -46.029     142.925     -88.414
  H      -47.551     142.265     -89.029
  P      -51.269     145.090     -89.140
  C      -51.938     147.594     -88.886
  O      -52.078     146.266     -88.413
  O      -51.521     143.818     -88.198
  O      -51.636     144.824     -90.560
  H      -52.272     143.293     -88.531
  H      -52.908     147.944     -89.251
  H      -51.203     147.673     -89.694
  H      -51.616     148.236     -88.059
  H      -49.222     139.917     -92.001
  H      -48.131     139.580     -90.679
  H      -47.589     139.388     -92.329

 3  4  5  6  7  8  9  10  11  12  23  26  30  31 0
 6-311+G(2d,p)
 ****
 33  35  36  37  38 0
 6-311+G(2d,p)
 ****
 1  2  13  14  15  16  17  18  19  20  21  22  24  25 0
 3-21G
 ****
 27  28  29  32  34  39  40  41  42  43  44  45  46  47  48  49 0
 3-21G
 ****


