%nproc=1
%NoSave
%Mem=1900MB
#P OB98/GEN NMR

erre ene a

0 1
  C      354.354     221.736     157.002
  O      353.590     222.883     157.289
  H      353.708     221.004     156.507
  H      354.736     221.288     157.921
  H      355.181     221.978     156.330
  P      354.280     224.114     158.060
  C      353.552     223.009     160.260
  O      353.527     224.199     159.482
  C      352.718     223.169     161.531
  O      353.349     224.140     162.408
  C      351.278     223.645     161.273
  O      350.362     222.840     162.022
  C      351.272     225.067     161.814
  O      349.971     225.513     162.187
  C      352.289     224.946     162.952
  N      352.755     226.249     163.408
  C      351.947     226.904     164.342
  O      350.905     226.375     164.739
  N      352.300     228.159     164.763
  C      353.349     228.733     164.256
  N      353.630     229.990     164.694
  C      354.217     228.090     163.248
  C      353.869     226.859     162.876
  O      354.315     225.390     157.286
  O      355.735     223.581     158.464
  H      350.032     226.456     162.456
  H      356.329     224.355     158.610
  H      355.078     228.612     162.855
  H      354.443     226.307     162.140
  H      351.859     224.409     163.810
  H      351.653     225.747     161.043
  H      350.999     223.615     160.219
  H      352.729     222.214     162.074
  H      353.006     230.394     165.382
  H      354.594     222.778     160.511
  H      354.404     230.542     164.359
  H      353.136     222.195     159.659
  P      349.935     221.447     161.354
  C      347.522     222.081     160.640
  O      348.344     221.297     161.495
  O      350.522     220.358     162.369
  O      350.477     221.256     159.974
  H      351.268     219.886     161.958
  H      346.493     221.876     160.848
  H      347.735     221.839     159.620
  H      347.720     223.119     160.809

 6  7  8  9  10  11  12  13  14  15  16  26  30  31  32  33  35 0
 6-311+G(2d,p)
 ****
 37  38 0
 6-311+G(2d,p)
 ****
 1  2  3  4  5  17  18  19  20  21  22  23  24  25 0
 3-21G
 ****
 27  28  29  34  36  39  40  41  42  43  44  45  46 0
 3-21G
 ****


