%nproc=1
%NoSave
%Mem=1900MB
#P OB98/GEN NMR

erre ene a

0 1
  C      -96.838    -873.515    -458.278
  O      -96.318    -872.219    -458.517
  H      -97.465    -873.479    -457.385
  H      -96.021    -874.219    -458.101
  H      -97.447    -873.848    -459.123
  P      -95.481    -871.958    -459.856
  C      -97.276    -870.231    -460.561
  O      -96.509    -871.371    -460.942
  C      -97.754    -869.491    -461.802
  O      -96.644    -868.854    -462.466
  C      -98.403    -870.390    -462.846
  O      -99.719    -870.758    -462.474
  C      -98.316    -869.499    -464.085
  O      -99.376    -868.538    -464.090
  C      -96.948    -868.813    -463.874
  N      -95.880    -869.435    -464.661
  C      -95.782    -869.044    -465.997
  O      -96.568    -868.253    -466.527
  N      -94.778    -869.630    -466.720
  C      -93.945    -870.617    -466.280
  O      -93.114    -871.166    -467.000
  C      -94.107    -871.010    -464.871
  C      -95.047    -870.400    -464.141
  O      -94.645    -873.096    -460.338
  O      -94.583    -870.684    -459.498
  H     -100.216    -869.050    -464.146
  H      -93.662    -870.971    -459.346
  H      -94.709    -869.366    -467.691
  H      -93.450    -871.770    -464.479
  H      -95.190    -870.678    -463.104
  H      -97.005    -867.755    -464.158
  H      -98.392    -870.069    -465.001
  H      -97.784    -871.280    -463.010
  H      -98.459    -868.707    -461.483
  H      -96.645    -869.570    -459.953
  H      -98.124    -870.565    -459.949
  P     -100.451    -871.967    -463.214
  C      -99.303    -873.714    -461.723
  O      -99.532    -873.274    -463.057
  O     -100.902    -871.675    -464.607
  O     -101.700    -872.290    -462.272
  H     -102.527    -872.162    -462.781
  H      -98.683    -874.586    -461.736
  H     -100.238    -873.949    -461.259
  H      -98.816    -872.938    -461.170

 6  7  8  9  10  11  12  13  14  15  16  26  31  32  33  34  35 0
 6-311+G(2d,p)
 ****
 36  37 0
 6-311+G(2d,p)
 ****
 1  2  3  4  5  17  18  19  20  21  22  23  24  25 0
 3-21G
 ****
 27  28  29  30  38  39  40  41  42  43  44  45 0
 3-21G
 ****


