%nproc=1
%NoSave
%Mem=1900MB
#P OB98/GEN NMR

erre ene a

0 1
  C      -70.971    -173.467    -134.992
  O      -70.521    -174.797    -135.140
  H      -71.923    -173.361    -135.520
  H      -70.251    -172.773    -135.432
  H      -71.126    -173.223    -133.939
  P      -69.225    -175.268    -134.324
  C      -70.384    -177.104    -132.937
  O      -69.741    -175.836    -132.917
  C      -71.222    -177.281    -131.673
  O      -72.230    -176.249    -131.599
  C      -71.985    -178.598    -131.620
  O      -71.132    -179.683    -131.310
  C      -73.032    -178.279    -130.568
  O      -72.502    -178.430    -129.246
  C      -73.347    -176.796    -130.864
  N      -74.597    -176.637    -131.607
  C      -75.332    -175.489    -131.332
  O      -74.978    -174.631    -130.528
  N      -76.536    -175.386    -131.977
  C      -77.118    -176.362    -132.735
  O      -78.293    -176.329    -133.086
  C      -76.270    -177.523    -133.040
  C      -75.071    -177.613    -132.461
  O      -68.117    -174.271    -134.238
  O      -68.758    -176.594    -135.093
  H      -67.996    -176.381    -135.664
  H      -73.124    -177.960    -128.653
  H      -77.095    -174.575    -131.751
  H      -76.668    -178.286    -133.698
  H      -74.440    -178.477    -132.643
  H      -73.421    -176.226    -129.929
  H      -73.901    -178.934    -130.655
  H      -72.487    -178.774    -132.579
  H      -70.562    -177.177    -130.803
  H      -69.619    -177.886    -132.979
  H      -71.012    -177.171    -133.832
  P      -70.699    -180.722    -132.449
  C      -68.143    -180.464    -132.418
  O      -69.347    -180.191    -133.127
  O      -71.776    -181.097    -133.411
  O      -70.201    -182.006    -131.630
  H      -70.641    -182.800    -131.992
  H      -67.311    -180.066    -132.961
  H      -68.025    -181.522    -132.310
  H      -68.188    -180.009    -131.450

 6  7  8  9  10  11  12  13  14  15  16  27  31  32  33  34  35 0
 6-311+G(2d,p)
 ****
 36  37 0
 6-311+G(2d,p)
 ****
 1  2  3  4  5  17  18  19  20  21  22  23  24  25 0
 3-21G
 ****
 26  28  29  30  38  39  40  41  42  43  44  45 0
 3-21G
 ****


