%nproc=1
%NoSave
%Mem=1900MB
#P OB98/GEN NMR

erre ene a

0 1
  C      383.392     593.533     284.198
  O      384.078     592.643     283.320
  P      383.260     591.456     282.621
  C      382.687     588.978     283.083
  O      383.286     590.167     283.587
  C      382.771     587.836     284.111
  O      384.161     587.422     284.275
  C      382.231     588.228     285.497
  O      381.283     587.301     286.011
  C      383.495     588.431     286.326
  O      383.259     588.277     287.720
  C      384.474     587.449     285.669
  N      385.862     587.841     285.927
  C      386.265     587.901     287.254
  O      385.497     587.719     288.203
  N      387.578     588.230     287.485
  C      388.492     588.567     286.525
  O      389.646     588.900     286.775
  C      388.008     588.549     285.137
  C      386.731     588.191     284.910
  O      383.603     591.177     281.187
  O      381.734     591.937     282.747
  H      384.112     588.387     288.194
  H      381.266     591.694     281.917
  H      387.880     588.256     288.447
  H      388.680     588.839     284.358
  H      386.335     588.180     283.899
  H      384.346     586.435     286.078
  H      383.854     589.449     286.163
  H      381.684     589.181     285.446
  H      382.206     586.984     283.710
  H      383.199     588.670     282.170
  H      381.648     589.186     282.783
  P      379.700     587.553     286.069
  C      378.045     588.746     287.671
  O      379.363     588.280     287.456
  O      378.841     586.374     285.752
  O      379.479     588.712     284.972
  H      378.662     588.523     284.476
  H      378.067     589.514     288.447
  H      377.416     587.911     288.003
  H      377.615     589.179     286.751
  H      384.079     594.261     284.576
  H      382.975     592.979     285.013
  H      382.607     594.027     283.664

 3  4  5  6  7  8  9  10  11  12  13  23  28  29  30  31  32 0
 6-311+G(2d,p)
 ****
 33  34 0
 6-311+G(2d,p)
 ****
 1  2  14  15  16  17  18  19  20  21  22  24  25  26  27 0
 3-21G
 ****
 35  36  37  38  39  40  41  42  43  44  45 0
 3-21G
 ****


