%nproc=1
%NoSave
%Mem=1900MB
#P OB98/GEN NMR

erre ene a

0 1
  C       28.281      19.569      -1.996
  O       29.309      19.387      -2.944
  H       27.760      20.503      -2.221
  H       28.714      19.641      -0.994
  H       27.560      18.748      -2.026
  P       29.935      17.927      -3.131
  C       31.332      18.063      -0.966
  O       31.354      17.903      -2.378
  C       32.712      18.418      -0.410
  O       32.625      18.687       1.006
  C       33.712      17.271      -0.562
  O       34.357      17.193      -1.820
  C       34.712      17.581       0.548
  O       35.706      18.515       0.095
  C       33.833      18.215       1.629
  N       33.318      17.476       6.656
  C       33.749      18.602       5.983
  N       34.149      19.640       6.751
  N       33.800      18.687       4.680
  C       33.462      17.539       4.047
  C       33.032      16.357       4.607
  C       32.928      16.291       6.051
  O       32.559      15.315       6.696
  N       32.775      15.409       3.646
  C       33.120      15.993       2.516
  N       33.518      17.295       2.706
  O       30.365      17.896      -4.676
  O       29.017      16.790      -2.804
  H       35.252      19.310      -0.238
  H       30.366      16.978      -5.001
  H       33.274      17.476       7.660
  H       33.076      15.529       1.537
  H       34.321      19.087       2.082
  H       35.246      16.684       0.873
  H       34.237      19.579       7.753
  H       33.232      16.314      -0.334
  H       34.713      20.369       6.311
  H       33.070      19.334      -0.893
  H       30.995      17.113      -0.547
  H       30.599      18.822      -0.681
  P       34.347      15.819      -2.641
  C       36.663      15.222      -1.615
  O       35.871      15.343      -2.776
  O       33.962      16.293      -4.120
  O       33.405      14.786      -2.126
  H       33.005      16.181      -4.271
  H       37.646      14.896      -1.886
  H       36.220      14.507      -0.954
  H       36.724      16.171      -1.125

 6  7  8  9  10  11  12  13  14  15  26  29  33  34 0
 6-311+G(2d,p)
 ****
 36  38  39  40  41 0
 6-311+G(2d,p)
 ****
 1  2  3  4  5  16  17  18  19  20  21  22  23  24  25 0
 3-21G
 ****
 27  28  30  31  32  35  37  42  43  44  45  46  47 0
 3-21G
 ****
 48  49 0
 3-21G
 ****


