%nproc=1
%NoSave
%Mem=1900MB
#P OB98/GEN NMR

erre ene a

0 1
  C       21.216      43.340     -94.241
  O       20.147      43.110     -95.156
  P       19.539      44.360     -95.953
  C       18.169      46.530     -95.305
  O       18.637      45.241     -94.974
  C       16.966      46.879     -94.411
  O       15.799      46.138     -94.828
  C       17.198      46.555     -92.937
  O       17.845      47.614     -92.256
  C       15.786      46.291     -92.449
  O       15.089      47.533     -92.241
  C       15.187      45.528     -93.655
  N       15.389      44.066     -93.723
  C       14.930      43.254     -92.687
  O       14.357      43.670     -91.685
  N       15.142      41.908     -92.838
  C       15.596      41.283     -93.963
  O       15.710      40.068     -94.064
  C       15.926      42.172     -95.083
  C       15.821      43.493     -94.913
  O       18.485      43.697     -96.953
  O       20.559      45.184     -96.679
  H       14.188      47.311     -91.946
  H       18.762      43.832     -97.879
  H       14.883      41.311     -92.067
  H       16.245      41.718     -96.013
  H       16.065      44.160     -95.736
  H       14.107      45.702     -93.721
  H       15.792      45.781     -91.488
  H       17.766      45.624     -92.840
  H       16.748      47.948     -94.526
  H       17.877      46.581     -96.358
  H       18.972      47.260     -95.163
  P       19.341      47.421     -91.717
  C       20.218      46.938     -89.354
  O       19.198      46.676     -90.302
  O       20.202      48.640     -91.723
  O       19.932      46.263     -92.659
  H       20.443      46.649     -93.406
  H       19.922      46.506     -88.394
  H       20.359      48.016     -89.231
  H       21.154      46.475     -89.680
  H       21.508      42.413     -93.793
  H       20.894      44.018     -93.479
  H       22.049      43.761     -94.764

 3  4  5  6  7  8  9  10  11  12  13  23  28  29  30  31  32 0
 6-311+G(2d,p)
 ****
 33  34 0
 6-311+G(2d,p)
 ****
 1  2  14  15  16  17  18  19  20  21  22  24  25  26  27 0
 3-21G
 ****
 35  36  37  38  39  40  41  42  43  44  45 0
 3-21G
 ****


