%nproc=1
%NoSave
%Mem=1900MB
#P OB98/GEN NMR

erre ene a

0 1
  C      481.358     478.302    -313.812
  O      480.081     477.975    -314.324
  H      481.958     477.390    -313.772
  H      481.264     478.705    -312.803
  H      481.861     479.024    -314.467
  P      479.022     479.156    -314.583
  C      479.172     478.871    -317.135
  O      478.323     478.845    -315.997
  C      478.672     477.912    -318.213
  O      479.052     476.559    -317.849
  C      477.149     477.933    -318.388
  O      476.846     477.779    -319.777
  C      476.683     476.702    -317.624
  O      475.441     476.189    -318.121
  C      477.858     475.749    -317.821
  N      476.000     471.329    -316.224
  C      475.759     472.028    -317.404
  N      474.882     471.476    -318.271
  N      476.340     473.164    -317.693
  C      477.209     473.590    -316.744
  C      477.527     472.993    -315.548
  C      476.870     471.741    -315.219
  O      477.014     471.082    -314.191
  N      478.421     473.743    -314.835
  C      478.658     474.797    -315.611
  N      477.925     474.750    -316.766
  O      479.570     480.546    -314.455
  O      477.854     478.873    -313.529
  H      475.376     475.254    -317.818
  H      477.946     479.457    -312.751
  H      475.524     470.456    -316.049
  H      479.324     475.615    -315.368
  H      477.797     475.200    -318.780
  H      476.555     476.954    -316.567
  H      474.413     470.601    -318.110
  H      476.686     478.851    -318.008
  H      474.710     471.960    -319.142
  H      479.174     478.151    -319.151
  H      480.186     478.575    -316.820
  H      479.219     479.898    -317.537
  P      475.334     477.997    -320.267
  C      475.867     479.774    -322.058
  O      475.368     478.467    -321.801
  O      474.469     478.826    -319.373
  O      474.780     476.491    -320.383
  H      473.822     476.494    -320.200
  H      475.838     479.966    -323.110
  H      476.876     479.845    -321.710
  H      475.262     480.494    -321.547

 6  7  8  9  10  11  12  13  14  15  26  29  33  34 0
 6-311+G(2d,p)
 ****
 36  38  39  40  41 0
 6-311+G(2d,p)
 ****
 1  2  3  4  5  16  17  18  19  20  21  22  23  24  25 0
 3-21G
 ****
 27  28  30  31  32  35  37  42  43  44  45  46  47 0
 3-21G
 ****
 48  49 0
 3-21G
 ****


