%nproc=1
%NoSave
%Mem=1900MB
#P OB98/GEN NMR

erre ene a

0 1
  C     -536.753      50.287      61.132
  O     -537.576      49.170      60.811
  H     -535.977      49.960      61.829
  H     -537.339      51.083      61.605
  H     -536.272      50.667      60.227
  P     -538.940      49.449      60.009
  C     -539.190      46.883      60.219
  O     -539.850      48.147      60.258
  C     -540.058      45.791      60.860
  O     -540.142      45.994      62.285
  C     -541.500      45.788      60.377
  O     -541.658      45.390      59.031
  C     -542.222      45.028      61.480
  O     -542.184      43.614      61.300
  C     -541.389      45.418      62.727
  N     -542.118      46.322      63.608
  C     -543.174      45.753      64.317
  O     -543.514      44.573      64.208
  N     -543.879      46.603      65.138
  C     -543.652      47.948      65.264
  O     -544.343      48.667      65.991
  C     -542.540      48.496      64.478
  C     -541.834      47.671      63.695
  O     -538.779      49.814      58.563
  O     -539.671      50.576      60.878
  H     -542.675      43.223      62.056
  H     -540.385      51.019      60.357
  H     -544.631      46.204      65.665
  H     -542.340      49.561      64.550
  H     -541.004      48.051      63.094
  H     -541.128      44.528      63.304
  H     -543.266      45.319      61.543
  H     -541.878      46.820      60.421
  H     -539.584      44.819      60.678
  H     -538.262      46.980      60.788
  H     -538.948      46.621      59.186
  P     -542.946      45.720      58.154
  C     -542.510      43.739      56.523
  O     -543.431      44.376      57.408
  O     -542.908      46.999      57.357
  O     -544.075      45.903      59.292
  H     -544.697      46.602      58.990
  H     -542.965      42.866      56.103
  H     -541.631      43.458      57.065
  H     -542.244      44.415      55.738

 6  7  8  9  10  11  12  13  14  15  16  26  31  32  33  34  35 0
 6-311+G(2d,p)
 ****
 36  37 0
 6-311+G(2d,p)
 ****
 1  2  3  4  5  17  18  19  20  21  22  23  24  25 0
 3-21G
 ****
 27  28  29  30  38  39  40  41  42  43  44  45 0
 3-21G
 ****


