%nproc=1
%NoSave
%Mem=1900MB
#P OB98/GEN NMR

erre ene a

0 1
  C       74.819     -16.581     167.358
  O       75.050     -15.551     168.299
  H       75.780     -16.911     166.955
  H       74.202     -16.205     166.538
  H       74.323     -17.431     167.838
  P       73.787     -15.040     169.141
  C       71.506     -13.929     168.473
  O       72.863     -14.193     168.138
  C       71.097     -12.548     167.956
  O       71.402     -12.408     166.552
  C       69.603     -12.278     168.030
  O       69.150     -12.086     169.352
  C       69.506     -11.040     167.154
  O       69.912      -9.867     167.870
  C       70.525     -11.377     166.035
  N       69.875     -11.792     164.799
  C       69.512     -10.758     163.924
  O       69.757      -9.588     164.212
  N       68.859     -11.083     162.759
  C       68.608     -12.322     162.479
  N       67.952     -12.574     161.319
  C       68.996     -13.442     163.362
  C       69.609     -13.108     164.493
  O       74.423     -13.909     170.075
  O       73.038     -16.101     169.878
  H       69.237      -9.714     168.560
  H       74.922     -13.231     169.583
  H       68.775     -14.465     163.083
  H       69.927     -13.868     165.200
  H       71.152     -10.502     165.810
  H       68.490     -10.862     166.807
  H       69.049     -13.085     167.533
  H       71.672     -11.795     168.512
  H       67.684     -11.780     160.747
  H       71.346     -13.997     169.555
  H       67.674     -13.500     161.014
  H       70.888     -14.703     168.003
  P       67.601     -11.783     169.641
  C       65.866     -10.138     168.682
  O       67.254     -10.430     168.850
  O       67.216     -11.770     171.083
  O       66.837     -12.889     168.770
  H       67.015     -12.851     167.816
  H       65.757      -9.219     168.145
  H       65.402     -10.047     169.642
  H       65.399     -10.929     168.134

 6  7  8  9  10  11  12  13  14  15  16  26  30  31  32  33  35 0
 6-311+G(2d,p)
 ****
 37  38 0
 6-311+G(2d,p)
 ****
 1  2  3  4  5  17  18  19  20  21  22  23  24  25 0
 3-21G
 ****
 27  28  29  34  36  39  40  41  42  43  44  45  46 0
 3-21G
 ****


