%nproc=1
%NoSave
%Mem=1900MB
#P OB98/GEN NMR

erre ene a

0 1
  C      120.698     222.224    -229.370
  O      119.491     222.708    -228.813
  H      120.709     221.134    -229.294
  H      121.554     222.625    -228.820
  H      120.766     222.507    -230.425
  P      119.313     224.303    -228.776
  C      119.265     224.312    -226.183
  O      118.586     224.644    -227.386
  C      118.617     225.011    -224.990
  O      118.885     226.430    -225.025
  C      117.104     224.848    -224.913
  O      116.755     223.619    -224.296
  C      116.718     226.059    -224.077
  O      116.945     225.809    -222.672
  C      117.682     227.134    -224.600
  N      114.692     231.023    -225.802
  C      114.927     230.423    -224.581
  N      114.243     230.912    -223.520
  N      115.751     229.422    -224.407
  C      116.323     228.997    -225.559
  C      116.169     229.505    -226.831
  C      115.296     230.650    -226.995
  O      115.111     231.279    -228.037
  N      116.932     228.816    -227.738
  C      117.515     227.870    -227.023
  N      117.173     227.936    -225.697
  O      118.170     224.576    -229.867
  O      120.543     225.092    -229.075
  H      116.352     225.095    -222.374
  H      118.380     225.403    -230.341
  H      114.073     231.812    -225.870
  H      118.200     227.127    -227.413
  H      117.981     227.835    -223.811
  H      115.660     226.299    -224.179
  H      113.405     231.465    -223.635
  H      116.647     224.936    -225.908
  H      114.361     230.422    -222.643
  H      119.092     224.618    -224.080
  H      120.310     224.630    -226.268
  H      119.236     223.225    -226.037
  P      115.719     222.661    -225.052
  C      113.833     223.166    -223.335
  O      114.623     222.176    -223.982
  O      116.584     221.340    -225.323
  O      115.171     223.212    -226.326
  H      116.835     221.298    -226.268
  H      113.154     222.693    -222.656
  H      113.280     223.716    -224.068
  H      114.471     223.834    -222.794

 6  7  8  9  10  11  12  13  14  15  26  29  33  34 0
 6-311+G(2d,p)
 ****
 36  38  39  40  41 0
 6-311+G(2d,p)
 ****
 1  2  3  4  5  16  17  18  19  20  21  22  23  24  25 0
 3-21G
 ****
 27  28  30  31  32  35  37  42  43  44  45  46  47 0
 3-21G
 ****
 48  49 0
 3-21G
 ****


