%nproc=1
%NoSave
%Mem=1900MB
#P OB98/GEN NMR

erre ene a

0 1
  C       69.987     -25.416      -8.000
  O       69.010     -24.399      -8.093
  H       70.821     -25.049      -7.394
  H       70.361     -25.670      -8.995
  H       69.567     -26.305      -7.522
  P       67.676     -24.753      -8.911
  C       65.821     -26.558      -8.661
  O       67.131     -26.136      -8.304
  C       65.634     -28.028      -8.295
  O       66.422     -28.849      -9.187
  C       66.101     -28.387      -6.889
  O       65.149     -28.021      -5.905
  C       66.295     -29.892      -7.016
  O       65.059     -30.598      -6.847
  C       66.791     -30.042      -8.460
  N       70.459     -33.553      -8.903
  C       69.111     -33.645      -8.934
  N       68.201     -32.654      -8.827
  C       68.812     -31.466      -8.684
  C       70.173     -31.219      -8.627
  C       71.020     -32.332      -8.747
  N       72.390     -32.243      -8.680
  N       70.412     -29.873      -8.424
  C       69.218     -29.319      -8.370
  N       68.224     -30.242      -8.527
  O       68.241     -25.167     -10.352
  O       66.671     -23.655      -8.997
  H       64.523     -30.416      -7.643
  H       68.217     -24.394     -10.946
  H       68.712     -34.649      -9.057
  H       69.025     -28.265      -8.211
  H       66.321     -30.890      -8.973
  H       66.989     -30.268      -6.263
  H       67.072     -27.921      -6.681
  H       64.578     -28.291      -8.434
  H       65.683     -26.437      -9.741
  H       65.091     -25.934      -8.136
  H       72.935     -33.087      -8.750
  H       72.813     -31.352      -8.457
  P       65.633     -27.888      -4.385
  C       67.555     -26.618      -3.178
  O       67.066     -27.166      -4.392
  O       65.970     -29.397      -3.974
  O       64.635     -27.268      -3.465
  H       65.238     -29.780      -3.456
  H       68.514     -26.175      -3.347
  H       67.644     -27.394      -2.447
  H       66.875     -25.871      -2.824

 6  7  8  9  10  11  12  13  14  15  25  28  32  33  34  35 0
 6-311+G(2d,p)
 ****
 36  37  40 0
 6-311+G(2d,p)
 ****
 1  2  3  4  5  16  17  18  19  20  21  22  23  24 0
 3-21G
 ****
 26  27  29  30  31  38  39 41  42  43  44  45  46  47  48 0
 3-21G
 ****


