%nproc=1
%NoSave
%Mem=1900MB
#P OB98/GEN NMR

erre ene a

0 1
  C     -333.728    -156.683     291.420
  O     -332.342    -156.941     291.536
  H     -334.090    -156.275     292.368
  H     -334.264    -157.615     291.211
  H     -333.918    -155.957     290.626
  P     -331.574    -157.385     290.204
  C     -332.304    -159.039     288.299
  O     -332.262    -158.745     289.689
  C     -332.839    -160.454     288.084
  O     -334.021    -160.692     288.870
  C     -333.288    -160.732     286.658
  O     -332.210    -160.836     285.756
  C     -334.053    -162.032     286.860
  O     -333.159    -163.148     286.963
  C     -334.753    -161.764     288.216
  N     -336.165    -161.439     288.063
  C     -337.059    -162.501     288.260
  O     -336.637    -163.620     288.554
  N     -338.401    -162.270     288.087
  C     -338.815    -161.083     287.773
  N     -340.157    -160.922     287.609
  C     -337.911    -159.932     287.583
  C     -336.613    -160.181     287.736
  O     -330.165    -157.890     290.764
  O     -331.480    -156.337     289.143
  H     -332.579    -163.107     286.175
  H     -330.242    -158.560     291.463
  H     -338.306    -158.958     287.329
  H     -335.881    -159.393     287.611
  H     -334.674    -162.643     288.869
  H     -334.731    -162.242     286.031
  H     -334.003    -159.966     286.332
  H     -332.063    -161.162     288.405
  H     -340.745    -161.740     287.728
  H     -331.315    -158.925     287.846
  H     -340.593    -160.055     287.333
  H     -332.969    -158.309     287.828
  P     -332.468    -160.827     284.173
  C     -333.945    -162.218     282.586
  O     -333.276    -162.175     283.844
  O     -331.259    -160.608     283.332
  O     -333.598    -159.703     283.992
  H     -334.427    -159.879     284.472
  H     -334.445    -163.158     282.480
  H     -333.230    -162.103     281.798
  H     -334.662    -161.425     282.536

 6  7  8  9  10  11  12  13  14  15  16  26  30  31  32  33  35 0
 6-311+G(2d,p)
 ****
 37  38 0
 6-311+G(2d,p)
 ****
 1  2  3  4  5  17  18  19  20  21  22  23  24  25 0
 3-21G
 ****
 27  28  29  34  36  39  40  41  42  43  44  45  46 0
 3-21G
 ****


