%nproc=1
%NoSave
%Mem=1900MB
#P OB98/GEN NMR

erre ene a

0 1
  C       82.269    -150.953     198.375
  O       82.091    -151.725     197.199
  P       80.844    -151.359     196.255
  C       81.995    -151.076     193.933
  O       81.411    -150.438     195.066
  C       83.400    -150.527     193.688
  O       84.234    -150.761     194.842
  C       84.135    -151.163     192.515
  O       83.645    -150.675     191.277
  C       85.572    -150.759     192.836
  O       85.800    -149.395     192.452
  C       85.606    -150.884     194.372
  N       89.909    -153.479     195.390
  C       89.692    -152.231     194.919
  N       88.521    -151.616     194.655
  C       87.488    -152.434     194.933
  C       87.546    -153.738     195.395
  C       88.829    -154.263     195.634
  N       89.036    -155.547     196.107
  N       86.281    -154.266     195.536
  C       85.471    -153.295     195.179
  N       86.149    -152.158     194.814
  O       80.008    -150.330     197.145
  O       80.017    -152.528     195.820
  H       85.696    -149.343     191.481
  H       79.045    -150.423     196.983
  H       90.595    -151.642     194.728
  H       84.385    -153.354     195.169
  H       86.195    -150.091     194.848
  H       86.323    -151.378     192.323
  H       84.040    -152.253     192.551
  H       83.318    -149.436     193.541
  H       81.380    -150.884     193.049
  H       89.985    -155.893     196.111
  H       88.247    -156.169     196.157
  H       82.025    -152.157     194.109
  P       83.578    -151.718     190.054
  C       81.015    -151.693     189.825
  O       82.151    -152.433     190.243
  O       84.608    -152.840     190.531
  O       83.833    -151.119     188.711
  H       84.448    -153.119     191.449
  H       80.130    -152.311     189.956
  H       81.107    -151.425     188.766
  H       80.912    -150.788     190.430
  H       83.130    -151.303     198.904
  H       81.404    -151.048     198.998
  H       82.406    -149.926     198.110

 3  4  5  6  7  8  9  10  11  12  22  25  29  30  31  32 0
 6-311+G(2d,p)
 ****
 33  36  37 0
 6-311+G(2d,p)
 ****
 1  2  13  14  15  16  17  18  19  20  21  23  24  26 0
 3-21G
 ****
 27  28  34  35  38  39  40  41  42  43  44  45  46  47  48 0
 3-21G
 ****


