%nproc=1
%NoSave
%Mem=1900MB
#P OB98/GEN NMR

erre ene a

0 1
  C      -37.439     205.323    -182.295
  O      -37.114     206.711    -182.245
  P      -35.832     207.316    -181.511
  C      -34.827     208.691    -183.506
  O      -35.452     208.697    -182.229
  C      -35.086     209.978    -184.308
  O      -36.430     209.945    -184.855
  C      -35.020     211.202    -183.395
  O      -33.773     211.788    -183.081
  C      -36.032     212.176    -183.984
  O      -35.435     213.109    -184.885
  C      -37.006     211.261    -184.729
  N      -41.852     212.898    -184.601
  C      -40.812     213.314    -185.410
  N      -41.074     214.332    -186.256
  N      -39.616     212.793    -185.370
  C      -39.461     211.847    -184.422
  C      -40.411     211.364    -183.548
  C      -41.752     211.908    -183.636
  O      -42.712     211.566    -182.954
  N      -39.885     210.420    -182.705
  C      -38.617     210.347    -183.047
  N      -38.311     211.191    -184.093
  O      -34.723     206.357    -181.254
  O      -36.413     207.785    -180.079
  H      -34.706     212.657    -185.346
  H      -35.689     207.667    -179.430
  H      -42.760     213.319    -184.689
  H      -37.880     209.701    -182.584
  H      -37.182     211.621    -185.753
  H      -36.502     212.770    -183.189
  H      -41.937     214.854    -186.250
  H      -35.437     210.900    -182.424
  H      -40.265     214.783    -186.688
  H      -34.414     210.043    -185.168
  H      -35.215     207.820    -184.044
  H      -33.753     208.536    -183.394
  P      -33.504     212.913    -181.973
  C      -32.170     211.423    -180.372
  O      -32.136     212.553    -181.224
  O      -34.604     212.620    -180.849
  O      -33.603     214.321    -182.464
  H      -34.703     213.390    -180.259
  H      -31.311     211.456    -179.700
  H      -32.114     210.510    -180.974
  H      -33.086     211.409    -179.776
  H      -38.346     205.189    -182.847
  H      -37.568     204.951    -181.300
  H      -36.647     204.788    -182.776

 3  4  5  6  7  8  9  10  11  12  23  26  30  31 0
 6-311+G(2d,p)
 ****
 33  35  36  37  38 0
 6-311+G(2d,p)
 ****
 1  2  13  14  15  16  17  18  19  20  21  22  24  25 0
 3-21G
 ****
 27  28  29  32  34  39  40  41  42  43  44  45  46  47  48  49 0
 3-21G
 ****


