%nproc=1
%NoSave
%Mem=1900MB
#P OB98/GEN NMR

erre ene a

0 1
  C      847.875      21.296     144.003
  O      848.583      21.085     142.778
  P      847.929      21.674     141.432
  C      846.466      23.812     141.820
  O      847.765      23.245     141.694
  C      846.520      25.318     141.563
  O      847.487      25.951     142.449
  C      846.959      25.694     140.160
  O      845.919      25.476     139.214
  C      847.343      27.158     140.354
  O      846.172      27.989     140.353
  C      847.964      27.136     141.771
  N      849.420      27.189     141.756
  C      849.979      28.435     141.465
  O      849.304      29.435     141.218
  N      851.343      28.491     141.461
  C      852.193      27.441     141.679
  O      853.414      27.561     141.669
  C      851.550      26.143     141.926
  C      850.213      26.071     141.951
  O      846.444      21.092     141.533
  O      848.683      21.288     140.202
  H      846.111      21.050     142.452
  H      846.457      28.871     140.668
  H      851.767      29.392     141.266
  H      852.190      25.278     142.075
  H      849.717      25.125     142.137
  H      847.595      27.989     142.359
  H      848.009      27.528     139.574
  H      847.848      25.113     139.871
  H      845.531      25.738     141.779
  H      846.070      23.632     142.827
  H      845.793      23.317     141.108
  P      846.137      24.278     138.163
  C      845.355      21.786     138.087
  O      845.210      23.069     138.655
  O      847.622      23.809     138.532
  O      845.957      24.697     136.735
  H      847.772      23.745     139.489
  H      844.914      21.047     138.760
  H      846.406      21.530     137.924
  H      844.823      21.748     137.125
  H      848.421      20.855     144.811
  H      846.907      20.845     143.938
  H      847.768      22.346     144.177

 3  4  5  6  7  8  9  10  11  12  13  24  28  29  30  31  32 0
 6-311+G(2d,p)
 ****
 33  34 0
 6-311+G(2d,p)
 ****
 1  2  14  15  16  17  18  19  20  21  22  23  25  26  27 0
 3-21G
 ****
 35  36  37  38  39  40  41  42  43  44  45 0
 3-21G
 ****


