%nproc=1
%NoSave
%Mem=1900MB
#P OB98/GEN NMR

erre ene a

0 1
  C      -39.679      31.828      74.010
  O      -38.785      32.659      73.303
  H      -39.552      32.017      75.082
  H      -39.455      30.777      73.820
  H      -40.715      32.051      73.738
  P      -38.727      32.566      71.699
  C      -39.493      34.989      71.320
  O      -39.832      33.613      71.171
  C      -39.840      35.786      70.061
  O      -41.287      35.837      69.904
  C      -39.319      37.229      70.074
  O      -38.691      37.529      68.823
  C      -40.584      38.063      70.220
  O      -40.436      39.388      69.718
  C      -41.599      37.179      69.479
  N      -42.974      37.555      69.783
  C      -43.460      38.693      69.129
  O      -42.748      39.313      68.335
  N      -44.730      39.130      69.416
  C      -45.426      38.518      70.325
  N      -46.666      39.023      70.588
  C      -44.938      37.331      71.063
  C      -43.718      36.908      70.744
  O      -38.855      31.182      71.153
  O      -37.348      33.274      71.297
  H      -40.175      39.340      68.769
  H      -37.075      32.953      70.405
  H      -45.561      36.864      71.812
  H      -43.275      36.050      71.231
  H      -41.450      37.241      68.394
  H      -40.851      38.134      71.282
  H      -38.615      37.425      70.883
  H      -39.459      35.234      69.187
  H      -46.957      39.840      70.070
  H      -38.420      35.062      71.536
  H      -47.289      38.642      71.291
  H      -40.060      35.392      72.164
  P      -37.619      38.731      68.839
  C      -35.518      37.541      67.885
  O      -36.156      38.090      69.027
  O      -37.906      39.462      70.244
  O      -37.770      39.674      67.694
  H      -38.314      40.334      70.085
  H      -34.559      37.155      68.163
  H      -35.394      38.303      67.144
  H      -36.119      36.750      67.486

 6  7  8  9  10  11  12  13  14  15  16  26  30  31  32  33  35 0
 6-311+G(2d,p)
 ****
 37  38 0
 6-311+G(2d,p)
 ****
 1  2  3  4  5  17  18  19  20  21  22  23  24  25 0
 3-21G
 ****
 27  28  29  34  36  39  40  41  42  43  44  45  46 0
 3-21G
 ****


