%nproc=1
%NoSave
%Mem=1900MB
#P OB98/GEN NMR

erre ene a

0 1
  C     -318.463     174.920      97.575
  O     -319.354     175.292      96.512
  P     -320.746     176.049      96.751
  C     -322.265     173.983      96.386
  O     -321.811     174.976      97.297
  C     -323.322     173.081      97.036
  O     -324.647     173.606      96.785
  C     -323.376     171.659      96.511
  O     -322.286     170.872      96.965
  C     -324.740     171.202      97.030
  O     -324.654     170.738      98.383
  C     -325.564     172.506      96.972
  N     -326.582     172.484      95.932
  C     -327.850     172.021      96.301
  O     -328.044     171.580      97.435
  N     -328.857     172.057      95.368
  C     -328.596     172.419      94.150
  N     -329.637     172.449      93.276
  C     -327.242     172.781      93.687
  C     -326.295     172.794      94.622
  O     -321.231     176.822      95.566
  O     -320.495     177.018      98.004
  H     -321.105     177.776      97.960
  H     -325.519     170.340      98.603
  H     -327.061     173.035      92.648
  H     -325.272     173.065      94.369
  H     -326.044     172.688      97.937
  H     -325.153     170.385      96.432
  H     -323.392     171.676      95.413
  H     -323.147     173.089      98.124
  H     -330.554     172.204      93.627
  H     -321.404     173.365      96.094
  H     -329.548     172.742      92.312
  H     -322.664     174.469      95.490
  P     -321.179     170.473      95.875
  C     -322.082     168.042      95.718
  O     -321.751     169.238      95.031
  O     -320.005     169.825      96.758
  O     -320.673     171.611      95.056
  H     -319.139     170.092      96.395
  H     -322.864     167.521      95.153
  H     -322.447     168.246      96.728
  H     -321.199     167.397      95.773
  H     -317.605     174.429      97.166
  H     -318.967     174.257      98.247
  H     -318.154     175.797      98.104

 3  4  5  6  7  8  9  10  11  12  13  24  27  28  29  30  32 0
 6-311+G(2d,p)
 ****
 34  35 0
 6-311+G(2d,p)
 ****
 1  2  14  15  16  17  18  19  20  21  22  23  25  26 0
 3-21G
 ****
 31  33  36  37  38  39  40  41  42  43  44  45  46 0
 3-21G
 ****


