%nproc=1
%NoSave
%Mem=1900MB
#P OB98/GEN NMR

erre ene a

0 1
  C     -233.244    -276.135     -34.080
  O     -232.597    -275.663     -32.914
  P     -231.903    -274.221     -32.915
  C     -234.070    -273.242     -31.942
  O     -233.065    -273.119     -32.944
  C     -234.419    -271.870     -31.371
  O     -233.438    -271.467     -30.393
  C     -234.446    -270.754     -32.408
  O     -235.628    -270.813     -33.182
  C     -234.325    -269.523     -31.519
  O     -235.605    -269.169     -30.967
  C     -233.384    -270.023     -30.413
  N     -229.306    -268.067     -28.057
  C     -230.579    -268.250     -27.649
  N     -231.622    -268.743     -28.352
  C     -231.246    -269.038     -29.606
  C     -229.993    -268.872     -30.176
  C     -228.982    -268.382     -29.334
  N     -227.666    -268.249     -29.720
  N     -230.013    -269.261     -31.501
  C     -231.252    -269.644     -31.727
  N     -232.015    -269.588     -30.595
  O     -230.825    -274.031     -33.930
  O     -231.314    -274.083     -31.432
  H     -236.002    -269.984     -30.610
  H     -230.345    -273.977     -31.478
  H     -230.787    -267.973     -26.619
  H     -231.638    -269.982     -32.679
  H     -233.705    -269.681     -29.422
  H     -233.951    -268.648     -32.059
  H     -233.560    -270.821     -33.050
  H     -235.389    -271.949     -30.863
  H     -233.686    -273.888     -31.147
  H     -226.999    -268.026     -28.997
  H     -227.353    -268.755     -30.545
  H     -234.960    -273.708     -32.377
  P     -235.761    -269.914     -34.501
  C     -234.893    -271.622     -36.205
  O     -234.631    -270.411     -35.522
  O     -235.814    -268.440     -34.276
  O     -237.110    -270.446     -35.181
  H     -237.548    -269.712     -35.653
  H     -234.707    -272.467     -35.539
  H     -234.222    -271.691     -37.065
  H     -235.927    -271.654     -36.559
  H     -233.646    -277.109     -33.895
  H     -232.539    -276.187     -34.883
  H     -234.036    -275.466     -34.344

 3  4  5  6  7  8  9  10  11  12  22  25  29  30  31  32 0
 6-311+G(2d,p)
 ****
 33  36  37 0
 6-311+G(2d,p)
 ****
 1  2  13  14  15  16  17  18  19  20  21  23  24  26 0
 3-21G
 ****
 27  28  34  35  38  39  40  41  42  43  44  45  46  47  48 0
 3-21G
 ****


