%nproc=1
%NoSave
%Mem=1900MB
#P OB98/GEN NMR

erre ene a

0 1
  C      560.209    -168.393    -880.883
  O      560.560    -169.632    -881.466
  H      560.006    -167.654    -881.664
  H      559.305    -168.529    -880.284
  H      561.015    -168.036    -880.235
  P      561.875    -169.656    -882.389
  C      560.386    -169.003    -884.419
  O      561.352    -169.900    -883.887
  C      559.795    -169.585    -885.700
  O      560.807    -169.673    -886.726
  C      559.234    -171.000    -885.545
  O      557.933    -171.004    -884.984
  C      559.213    -171.441    -886.995
  O      558.082    -170.847    -887.670
  C      560.523    -170.847    -887.528
  N      563.852    -173.647    -890.231
  C      562.820    -172.859    -890.600
  N      561.981    -172.147    -889.828
  C      562.282    -172.316    -888.530
  C      563.295    -173.097    -887.992
  C      564.111    -173.779    -888.915
  N      565.152    -174.601    -888.531
  N      563.274    -173.047    -886.616
  C      562.285    -172.224    -886.320
  N      561.647    -171.767    -887.444
  O      562.570    -171.046    -882.015
  O      562.795    -168.491    -882.233
  H      557.286    -171.195    -887.237
  H      563.518    -171.021    -882.259
  H      562.652    -172.782    -891.676
  H      561.992    -171.931    -885.325
  H      560.442    -170.520    -888.573
  H      559.117    -172.522    -887.115
  H      559.918    -171.638    -884.977
  H      559.013    -168.896    -886.057
  H      560.868    -168.048    -884.644
  H      565.546    -175.187    -889.250
  H      565.251    -174.823    -887.548
  H      559.603    -168.838    -883.672
  P      557.776    -171.619    -883.512
  C      557.701    -174.143    -884.113
  O      556.971    -172.993    -883.690
  O      556.694    -170.644    -882.830
  O      559.036    -171.696    -882.727
  H      556.802    -170.633    -881.863
  H      557.038    -174.979    -884.187
  H      558.469    -174.360    -883.401
  H      558.144    -173.953    -885.068

 6  7  8  9  10  11  12  13  14  15  25  28  32  33  34  35 0
 6-311+G(2d,p)
 ****
 36  39  40 0
 6-311+G(2d,p)
 ****
 1  2  3  4  5  16  17  18  19  20  21  22  23  24 0
 3-21G
 ****
 26  27  29  30  31  37  38  41  42  43  44  45  46  47 0
 3-21G
 ****
 48 0
 3-21G
 ****


