%nproc=1
%NoSave
%Mem=1900MB
#P OB98/GEN NMR

erre ene a

0 1
  C     -474.400     144.301    -509.382
  O     -475.390     143.326    -509.638
  H     -473.502     144.047    -509.952
  H     -474.145     144.320    -508.319
  H     -474.746     145.289    -509.697
  P     -476.809     143.474    -508.907
  C     -476.932     141.514    -507.235
  O     -476.606     142.884    -507.432
  C     -475.660     140.674    -507.201
  O     -474.722     141.223    -506.256
  C     -475.887     139.217    -506.794
  O     -476.347     138.459    -507.899
  C     -474.486     138.835    -506.346
  O     -473.652     138.606    -507.499
  C     -474.036     140.112    -505.610
  N     -472.506     138.751    -500.973
  C     -471.941     138.491    -502.204
  N     -470.831     137.721    -502.203
  N     -472.429     138.929    -503.337
  C     -473.580     139.623    -503.192
  C     -474.244     139.930    -502.025
  C     -473.662     139.492    -500.774
  O     -474.121     139.715    -499.656
  N     -475.416     140.597    -502.274
  C     -475.439     140.725    -503.586
  N     -474.353     140.136    -504.192
  O     -477.991     142.902    -509.631
  O     -476.956     145.047    -508.662
  H     -473.993     137.803    -507.934
  H     -477.433     145.477    -509.393
  H     -472.092     138.372    -500.136
  H     -476.215     141.232    -504.150
  H     -472.961     140.290    -505.704
  H     -474.460     137.931    -505.741
  H     -470.588     137.136    -501.413
  H     -476.558     139.139    -505.931
  H     -470.429     137.477    -503.099
  H     -475.190     140.733    -508.191
  H     -477.574     141.201    -508.065
  H     -477.483     141.383    -506.299
  P     -477.264     137.156    -507.687
  C     -476.088     134.919    -508.232
  O     -476.240     135.988    -507.305
  O     -478.177     136.841    -508.824
  O     -478.022     137.421    -506.303
  H     -478.874     137.909    -506.408
  H     -475.378     134.215    -507.851
  H     -475.741     135.305    -509.168
  H     -477.031     134.433    -508.374

 6  7  8  9  10  11  12  13  14  15  26  29  33  34 0
 6-311+G(2d,p)
 ****
 36  38  39  40  41 0
 6-311+G(2d,p)
 ****
 1  2  3  4  5  16  17  18  19  20  21  22  23  24  25 0
 3-21G
 ****
 27  28  30  31  32  35  37  42  43  44  45  46  47 0
 3-21G
 ****
 48  49 0
 3-21G
 ****


