%nproc=1
%NoSave
%Mem=1900MB
#P OB98/GEN NMR

erre ene a

0 1
  C      -81.906      47.684      -5.290
  O      -82.836      48.711      -5.549
  H      -81.035      48.124      -4.792
  H      -81.571      47.226      -6.222
  H      -82.337      46.925      -4.630
  P      -84.206      48.356      -6.312
  C      -85.521      47.802      -4.176
  O      -84.952      47.280      -5.374
  C      -86.644      46.902      -3.657
  O      -86.109      45.577      -3.371
  C      -87.318      47.420      -2.380
  O      -88.741      47.343      -2.517
  C      -86.857      46.440      -1.310
  O      -87.747      46.373      -0.200
  C      -86.724      45.152      -2.137
  N      -85.941      44.137      -1.445
  C      -86.601      43.438      -0.428
  O      -87.783      43.678      -0.165
  N      -85.900      42.508       0.299
  C      -84.633      42.340       0.070
  N      -83.986      41.426       0.850
  C      -83.890      43.082      -0.973
  C      -84.598      43.954      -1.686
  O      -84.033      47.941      -7.737
  O      -85.118      49.663      -6.146
  H      -87.716      47.230       0.284
  H      -85.799      49.667      -6.860
  H      -82.834      42.903      -1.117
  H      -84.141      44.544      -2.468
  H      -87.712      44.736      -2.369
  H      -85.874      46.750      -0.934
  H      -87.039      48.445      -2.132
  H      -87.378      46.765      -4.466
  H      -84.528      40.950       1.558
  H      -85.902      48.810      -4.381
  H      -82.996      41.227       0.777
  H      -84.733      47.860      -3.420
  P      -89.478      48.686      -3.015
  C      -89.775      48.061      -5.517
  O      -89.129      48.898      -4.570
  O      -88.659      49.854      -2.270
  O      -90.927      48.730      -2.665
  H      -89.215      50.258      -1.578
  H      -89.446      48.317      -6.502
  H      -90.834      48.196      -5.448
  H      -89.532      47.039      -5.314

 6  7  8  9  10  11  12  13  14  15  16  26  30  31  32  33  35 0
 6-311+G(2d,p)
 ****
 37  38 0
 6-311+G(2d,p)
 ****
 1  2  3  4  5  17  18  19  20  21  22  23  24  25 0
 3-21G
 ****
 27  28  29  34  36  39  40  41  42  43  44  45  46 0
 3-21G
 ****


