%nproc=1
%NoSave
%Mem=1900MB
#P OB98/GEN NMR

erre ene a

0 1
  C     -188.329     163.469      28.167
  O     -188.269     164.298      29.311
  H     -188.636     164.074      27.311
  H     -189.068     162.677      28.316
  H     -187.350     163.028      27.951
  P     -187.648     163.704      30.663
  C     -188.658     162.348      32.612
  O     -188.690     162.617      31.218
  C     -189.508     161.115      32.928
  O     -188.856     159.924      32.436
  C     -189.737     160.879      34.414
  O     -190.704     161.777      34.928
  C     -190.156     159.417      34.409
  O     -191.541     159.285      34.038
  C     -189.234     158.838      33.309
  N     -188.055     158.160      33.846
  C     -188.186     156.802      34.113
  O     -189.237     156.185      33.950
  N     -187.059     156.174      34.592
  C     -185.878     156.779      34.899
  O     -184.917     156.182      35.380
  C     -185.806     158.226      34.635
  C     -186.881     158.839      34.125
  O     -187.199     164.710      31.673
  O     -186.425     162.801      30.153
  H     -192.053     159.792      34.699
  H     -185.586     163.286      30.269
  H     -187.142     155.194      34.800
  H     -184.882     158.739      34.869
  H     -186.850     159.905      33.922
  H     -189.787     158.118      32.688
  H     -190.042     158.940      35.381
  H     -188.789     160.968      34.964
  H     -190.462     161.218      32.394
  H     -189.065     163.217      33.148
  H     -187.617     162.190      32.919
  P     -190.410     162.624      36.253
  C     -189.900     162.132      38.717
  O     -190.365     161.593      37.486
  O     -191.299     163.807      36.464
  O     -188.881     163.074      36.100
  H     -188.837     164.022      35.880
  H     -189.909     161.369      39.467
  H     -190.539     162.936      39.018
  H     -188.902     162.497      38.592

 6  7  8  9  10  11  12  13  14  15  16  26  31  32  33  34  35 0
 6-311+G(2d,p)
 ****
 36  37 0
 6-311+G(2d,p)
 ****
 1  2  3  4  5  17  18  19  20  21  22  23  24  25 0
 3-21G
 ****
 27  28  29  30  38  39  40  41  42  43  44  45 0
 3-21G
 ****


