%nproc=1
%NoSave
%Mem=1900MB
#P OB98/GEN NMR

erre ene a

0 1
  C     -494.410    -943.419    -240.217
  O     -494.456    -942.075    -239.795
  H     -495.324    -943.919    -239.895
  H     -493.556    -943.924    -239.764
  H     -494.343    -943.487    -241.309
  P     -493.384    -941.036    -240.378
  C     -491.959    -941.219    -238.235
  O     -491.989    -941.365    -239.643
  C     -490.692    -941.850    -237.650
  O     -489.528    -941.276    -238.311
  C     -490.521    -941.625    -236.134
  O     -489.827    -942.755    -235.608
  C     -489.629    -940.394    -236.111
  O     -489.013    -940.234    -234.848
  C     -488.700    -940.688    -237.289
  N     -487.990    -939.498    -237.756
  C     -487.034    -938.965    -236.899
  O     -486.794    -939.429    -235.783
  N     -486.392    -937.845    -237.336
  C     -486.637    -937.195    -238.515
  O     -486.050    -936.170    -238.840
  C     -487.696    -937.774    -239.359
  C     -488.306    -938.900    -238.952
  O     -493.786    -939.602    -240.340
  O     -493.121    -941.544    -241.875
  H     -489.688    -940.080    -234.150
  H     -492.893    -940.790    -242.450
  H     -485.685    -937.453    -236.736
  H     -487.925    -937.269    -240.285
  H     -489.083    -939.344    -239.550
  H     -487.942    -941.441    -237.004
  H     -490.216    -939.489    -236.308
  H     -491.467    -941.479    -235.612
  H     -490.692    -942.923    -237.896
  H     -492.846    -941.717    -237.821
  H     -491.994    -940.148    -237.977
  P     -490.590    -944.012    -234.971
  C     -490.053    -943.231    -232.573
  O     -491.073    -943.623    -233.488
  O     -489.835    -945.303    -235.054
  O     -491.965    -944.109    -235.801
  H     -492.279    -945.038    -235.808
  H     -490.494    -942.998    -231.626
  H     -489.546    -942.369    -232.952
  H     -489.354    -944.032    -232.454

 6  7  8  9  10  11  12  13  14  15  16  26  31  32  33  34  35 0
 6-311+G(2d,p)
 ****
 36  37 0
 6-311+G(2d,p)
 ****
 1  2  3  4  5  17  18  19  20  21  22  23  24  25 0
 3-21G
 ****
 27  28  29  30  38  39  40  41  42  43  44  45 0
 3-21G
 ****


