%nproc=1
%NoSave
%Mem=1900MB
#P OB98/GEN NMR

erre ene a

0 1
  C      115.480     -72.657     346.461
  O      116.126     -73.933     346.557
  P      116.397     -74.687     347.952
  C      118.826     -75.315     347.310
  O      117.545     -75.784     347.711
  C      119.738     -76.479     346.917
  O      119.394     -76.959     345.596
  C      121.220     -76.148     346.823
  O      121.819     -75.977     348.093
  C      121.744     -77.346     346.033
  O      122.016     -78.460     346.893
  C      120.557     -77.676     345.108
  N      120.814     -77.356     343.711
  C      121.879     -78.031     343.101
  O      122.595     -78.789     343.759
  N      122.111     -77.815     341.765
  C      121.417     -76.926     341.126
  N      121.680     -76.768     339.800
  C      120.378     -76.096     341.764
  C      120.131     -76.363     343.046
  O      115.162     -75.236     348.592
  O      117.098     -73.597     348.894
  H      116.920     -73.811     349.827
  H      122.895     -78.301     347.290
  H      119.850     -75.336     341.205
  H      119.373     -75.810     343.593
  H      120.295     -78.739     345.193
  H      122.673     -77.112     345.498
  H      121.345     -75.233     346.221
  H      119.577     -77.295     347.639
  H      122.391     -77.363     339.390
  H      119.278     -74.781     348.157
  H      121.180     -76.122     339.204
  H      118.712     -74.609     346.481
  P      122.590     -74.593     348.351
  C      124.876     -75.706     348.893
  O      123.807     -74.891     349.348
  O      121.562     -73.749     349.246
  O      122.963     -73.845     347.110
  H      121.584     -72.813     348.976
  H      125.785     -75.425     349.430
  H      125.046     -75.581     347.815
  H      124.644     -76.750     349.107
  H      115.416     -72.366     345.433
  H      116.046     -71.929     347.003
  H      114.496     -72.724     346.875

 3  4  5  6  7  8  9  10  11  12  13  24  27  28  29  30  32 0
 6-311+G(2d,p)
 ****
 34  35 0
 6-311+G(2d,p)
 ****
 1  2  14  15  16  17  18  19  20  21  22  23  25  26 0
 3-21G
 ****
 31  33  36  37  38  39  40  41  42  43  44  45  46 0
 3-21G
 ****


