%nproc=1
%NoSave
%Mem=1900MB
#P OB98/GEN NMR

erre ene a

0 1
  C     -143.288     -33.015    -148.413
  O     -142.148     -33.518    -149.120
  P     -141.534     -32.618    -150.294
  C     -139.454     -32.978    -151.814
  O     -140.600     -33.552    -151.201
  C     -138.437     -34.067    -152.163
  O     -137.681     -34.486    -151.003
  C     -139.067     -35.334    -152.727
  O     -139.334     -35.215    -154.119
  C     -137.952     -36.343    -152.499
  O     -136.956     -36.213    -153.533
  C     -137.383     -35.897    -151.147
  N     -136.530     -39.554    -147.758
  C     -135.714     -39.058    -148.756
  N     -134.488     -39.613    -148.863
  N     -136.069     -38.104    -149.576
  C     -137.316     -37.632    -149.342
  C     -138.218     -38.043    -148.387
  C     -137.820     -39.109    -147.496
  O     -138.504     -39.599    -146.604
  N     -139.386     -37.331    -148.464
  C     -139.185     -36.476    -149.450
  N     -137.949     -36.631    -150.026
  O     -140.472     -31.700    -149.522
  O     -142.541     -31.796    -151.030
  H     -137.327     -36.634    -154.333
  H     -140.358     -30.855    -149.995
  H     -136.208     -40.294    -147.158
  H     -139.898     -35.732    -149.780
  H     -136.296     -36.012    -151.093
  H     -138.312     -37.376    -152.535
  H     -134.131     -40.315    -148.232
  H     -139.960     -35.622    -152.159
  H     -133.862     -39.238    -149.565
  H     -137.737     -33.656    -152.902
  H     -138.995     -32.243    -151.148
  H     -139.767     -32.422    -152.701
  P     -140.866     -35.218    -154.590
  C     -142.063     -33.892    -156.474
  O     -140.885     -34.539    -156.039
  O     -141.533     -34.118    -153.637
  O     -141.552     -36.537    -154.477
  H     -142.464     -34.350    -153.460
  H     -141.846     -33.354    -157.399
  H     -142.414     -33.177    -155.726
  H     -142.845     -34.633    -156.674
  H     -143.583     -33.720    -147.664
  H     -144.095     -32.865    -149.099
  H     -143.037     -32.085    -147.948

 3  4  5  6  7  8  9  10  11  12  23  26  30  31 0
 6-311+G(2d,p)
 ****
 33  35  36  37  38 0
 6-311+G(2d,p)
 ****
 1  2  13  14  15  16  17  18  19  20  21  22  24  25 0
 3-21G
 ****
 27  28  29  32  34  39  40  41  42  43  44  45  46  47  48  49 0
 3-21G
 ****


