%nproc=1
%NoSave
%Mem=1900MB
#P OB98/GEN NMR

erre ene a

0 1
  C      251.460      14.699    -343.394
  O      252.262      15.717    -342.842
  H      251.079      14.076    -342.579
  H      252.052      14.065    -344.061
  H      250.612      15.124    -343.935
  P      252.992      16.760    -343.820
  C      252.427      18.653    -342.178
  O      253.467      17.972    -342.868
  C      252.626      18.568    -340.665
  O      252.639      17.174    -340.253
  C      253.934      19.205    -340.176
  O      253.675      20.042    -339.047
  C      254.775      18.014    -339.745
  O      255.768      18.350    -338.780
  C      253.682      17.049    -339.271
  N      254.172      15.683    -339.148
  C      254.265      15.174    -337.850
  O      253.934      15.868    -336.887
  N      254.777      13.916    -337.666
  C      255.207      13.243    -338.689
  N      255.731      12.014    -338.436
  C      255.155      13.753    -340.073
  C      254.627      14.967    -340.230
  O      252.187      17.170    -345.007
  O      254.375      16.057    -344.211
  H      256.333      19.062    -339.151
  H      254.706      16.450    -345.052
  H      255.531      13.155    -340.890
  H      254.548      15.426    -341.210
  H      253.277      17.364    -338.301
  H      255.285      17.595    -340.622
  H      254.440      19.794    -340.943
  H      251.756      19.025    -340.175
  H      255.753      11.706    -337.470
  H      251.467      18.208    -342.464
  H      256.117      11.411    -339.145
  H      252.442      19.703    -342.483
  P      252.993      21.462    -339.356
  C      252.469      21.706    -336.827
  O      252.989      22.315    -337.998
  O      251.453      21.090    -339.584
  O      253.573      22.153    -340.544
  H      251.220      21.203    -340.526
  H      252.533      22.393    -336.009
  H      253.036      20.827    -336.600
  H      251.446      21.438    -336.989

 6  7  8  9  10  11  12  13  14  15  16  26  30  31  32  33  35 0
 6-311+G(2d,p)
 ****
 37  38 0
 6-311+G(2d,p)
 ****
 1  2  3  4  5  17  18  19  20  21  22  23  24  25 0
 3-21G
 ****
 27  28  29  34  36  39  40  41  42  43  44  45  46 0
 3-21G
 ****


