%nproc=1
%NoSave
%Mem=1900MB
#P OB98/GEN NMR

erre ene a

0 1
  C      -84.577       1.828      87.711
  O      -83.747       1.390      88.763
  H      -85.514       2.196      88.135
  H      -84.799       0.989      87.046
  H      -84.110       2.634      87.140
  P      -82.179       1.233      88.492
  C      -80.009       1.122      89.885
  O      -81.414       1.342      89.900
  C      -79.364       1.497      91.219
  O      -79.521       2.913      91.453
  C      -80.010       0.779      92.407
  O      -79.466      -0.500      92.687
  C      -79.738       1.753      93.550
  O      -78.465       1.493      94.166
  C      -79.730       3.120      92.858
  N      -81.962       7.212      94.956
  C      -80.676       6.738      95.138
  N      -79.912       7.423      96.014
  N      -80.205       5.684      94.525
  C      -81.119       5.048      93.757
  C      -82.425       5.411      93.517
  C      -82.916       6.622      94.141
  O      -84.039       7.092      94.000
  N      -83.064       4.498      92.713
  C      -82.170       3.544      92.542
  N      -80.951       3.870      93.089
  O      -81.784       2.616      87.778
  O      -81.785       0.068      87.636
  H      -77.768       1.675      93.506
  H      -81.051       2.464      87.155
  H      -82.259       8.045      95.433
  H      -82.337       2.623      91.996
  H      -78.901       3.743      93.214
  H      -80.492       1.653      94.334
  H      -80.250       8.187      96.576
  H      -81.093       0.705      92.272
  H      -79.032       7.001      96.318
  H      -78.286       1.299      91.168
  H      -79.605       1.745      89.086
  H      -79.790       0.080      89.634
  P      -80.070      -1.411      93.852
  C      -79.452      -3.814      94.714
  O      -79.559      -2.907      93.638
  O      -81.623      -1.494      93.477
  O      -79.855      -0.906      95.241
  H      -82.139      -0.856      94.005
  H      -79.093      -4.755      94.353
  H      -80.413      -3.948      95.164
  H      -78.769      -3.426      95.441

 6  7  8  9  10  11  12  13  14  15  26  29  33  34 0
 6-311+G(2d,p)
 ****
 36  38  39  40  41 0
 6-311+G(2d,p)
 ****
 1  2  3  4  5  16  17  18  19  20  21  22  23  24  25 0
 3-21G
 ****
 27  28  30  31  32  35  37  42  43  44  45  46  47 0
 3-21G
 ****
 48  49 0
 3-21G
 ****


