%nproc=1
%NoSave
%Mem=1900MB
#P OB98/GEN NMR

erre ene a

0 1
  C     -277.186     154.415      99.995
  O     -278.570     154.241      99.693
  P     -279.179     152.768      99.835
  C     -280.298     153.220     102.169
  O     -280.451     152.858     100.808
  C     -281.478     152.709     103.018
  O     -282.695     153.334     102.536
  C     -281.733     151.206     102.938
  O     -282.537     150.819     104.053
  C     -282.551     151.101     101.667
  O     -283.256     149.865     101.596
  C     -283.430     152.370     101.733
  N     -283.739     152.948     100.406
  C     -285.077     153.184     100.079
  O     -286.021     152.939     100.833
  N     -285.315     153.681      98.826
  C     -284.365     153.998      97.900
  O     -284.637     154.363      96.758
  C     -282.974     153.865      98.342
  C     -282.728     153.344      99.546
  O     -278.084     151.990     100.693
  O     -279.455     152.101      98.527
  H     -283.848     149.923     100.813
  H     -277.573     151.379     100.124
  H     -286.281     153.793      98.552
  H     -282.189     154.171      97.657
  H     -281.699     153.217      99.881
  H     -284.387     152.165     102.228
  H     -281.889     151.147     100.795
  H     -280.830     150.591     102.893
  H     -281.332     153.023     104.062
  H     -280.210     154.309     102.256
  H     -279.359     152.801     102.554
  P     -281.865     149.896     105.182
  C     -280.066     151.282     106.389
  O     -281.424     150.884     106.372
  O     -280.817     148.944     104.711
  O     -283.126     149.132     105.813
  H     -282.818     148.334     106.295
  H     -279.997     152.274     106.851
  H     -279.647     151.328     105.385
  H     -279.491     150.573     106.993
  H     -276.917     155.442      99.858
  H     -276.599     153.803      99.343
  H     -277.004     154.131     101.010

 3  4  5  6  7  8  9  10  11  12  13  23  28  29  30  31  32 0
 6-311+G(2d,p)
 ****
 33  34 0
 6-311+G(2d,p)
 ****
 1  2  14  15  16  17  18  19  20  21  22  24  25  26  27 0
 3-21G
 ****
 35  36  37  38  39  40  41  42  43  44  45 0
 3-21G
 ****


