%nproc=1
%NoSave
%Mem=1900MB
#P OB98/GEN NMR

erre ene a

0 1
  C      288.540     573.454    -303.242
  O      287.491     574.407    -303.304
  P      287.708     575.795    -302.518
  C      285.831     575.318    -300.797
  O      286.298     576.156    -301.842
  C      284.410     575.716    -300.359
  O      284.473     576.987    -299.665
  C      283.421     575.853    -301.519
  O      282.149     575.376    -301.065
  C      283.336     577.355    -301.732
  O      282.100     577.729    -302.349
  C      283.527     577.872    -300.302
  N      283.987     579.256    -300.268
  C      283.073     580.242    -300.666
  O      281.967     579.917    -301.097
  N      283.459     581.558    -300.616
  C      284.679     581.859    -300.312
  N      285.011     583.182    -300.270
  C      285.712     580.841    -299.997
  C      285.290     579.578    -299.979
  O      287.829     576.857    -303.712
  O      288.895     575.816    -301.615
  H      282.121     577.440    -303.290
  H      288.427     577.591    -303.467
  H      286.722     581.147    -299.783
  H      285.975     578.765    -299.739
  H      282.579     577.808    -299.732
  H      284.158     577.690    -302.374
  H      283.721     575.297    -302.413
  H      284.055     574.970    -299.639
  H      284.287     583.856    -300.504
  H      286.486     575.423    -299.928
  H      285.941     583.508    -300.034
  H      285.850     574.272    -301.122
  P      281.536     574.077    -301.786
  C      279.599     575.128    -303.115
  O      279.974     574.402    -301.961
  O      281.517     573.022    -300.586
  O      282.251     573.530    -302.976
  H      281.219     572.154    -300.918
  H      278.504     575.157    -303.176
  H      279.990     574.647    -304.018
  H      279.971     576.158    -303.053
  H      288.266     572.585    -303.803
  H      288.713     573.180    -302.222
  H      289.432     573.878    -303.654

 3  4  5  6  7  8  9  10  11  12  13  21  23  27  28  29  30  32 0
 6-311+G(2d,p)
 ****
 34  35 0
 6-311+G(2d,p)
 ****
 1  2  14  15  16  17  18  19  20  22  24  25  26 0
 3-21G
 ****
 31  33  36  37  38  39  40  41  42  43  44  45  46 0
 3-21G
 ****


