%nproc=1
%NoSave
%Mem=1900MB
#P OB98/GEN NMR

erre ene a

0 1
  C      603.318     156.343    1115.260
  O      603.651     154.952    1115.097
  P      603.321     154.124    1113.746
  C      601.716     152.445    1114.868
  O      602.932     152.628    1114.133
  C      601.471     150.975    1115.204
  O      601.241     150.204    1114.000
  C      602.620     150.282    1115.924
  O      602.699     150.663    1117.292
  C      602.284     148.816    1115.665
  O      601.316     148.343    1116.627
  C      601.674     148.861    1114.251
  N      602.626     148.409    1113.238
  C      603.102     147.093    1113.389
  O      602.766     146.423    1114.365
  N      603.971     146.607    1112.420
  C      604.370     147.385    1111.451
  N      605.206     146.835    1110.545
  C      603.956     148.786    1111.319
  C      603.083     149.217    1112.222
  O      604.396     154.241    1112.695
  O      601.945     154.753    1113.202
  H      600.595     149.002    1116.653
  H      601.939     154.694    1112.234
  H      604.329     149.406    1110.504
  H      602.713     150.260    1112.199
  H      600.785     148.228    1114.195
  H      603.150     148.155    1115.751
  H      603.567     150.527    1115.413
  H      600.553     150.923    1115.829
  H      605.483     145.860    1110.658
  H      600.873     152.831    1114.264
  H      605.571     147.348    1109.748
  H      601.774     153.045    1115.784
  P      603.794     151.720    1117.755
  C      605.505     149.804    1117.910
  O      604.933     150.913    1118.568
  O      603.290     152.950    1118.444
  O      604.574     152.102    1116.387
  H      604.890     153.020    1116.455
  H      606.462     149.578    1118.392
  H      605.625     149.969    1116.859
  H      604.831     148.925    1118.075
  H      603.631     156.673    1116.229
  H      602.260     156.470    1115.164
  H      603.816     156.919    1114.509

 3  4  5  6  7  8  9  10  11  12  13  23  27  28  29  30  32 0
 6-311+G(2d,p)
 ****
 34  35 0
 6-311+G(2d,p)
 ****
 1  2  14  15  16  17  18  19  20  21  22  24  25  26 0
 3-21G
 ****
 31  33  36  37  38  39  40  41  42  43  44  45  46 0
 3-21G
 ****


