%nproc=1
%NoSave
%Mem=1900MB
#P OB98/GEN NMR

erre ene a

0 1
  C      620.375    -895.710      10.301
  O      619.640    -895.040       9.290
  H      619.781    -896.550      10.649
  H      620.559    -895.030      11.138
  H      621.339    -896.080       9.895
  P      620.344    -893.850       8.467
  C      619.977    -892.830       6.125
  O      619.894    -894.000       6.932
  C      619.028    -892.960       4.933
  O      619.437    -894.070       4.077
  C      617.596    -893.300       5.335
  O      616.918    -892.140       5.830
  C      617.032    -893.830       4.004
  O      616.665    -892.760       3.137
  C      618.252    -894.620       3.462
  N      618.162    -896.070       3.690
  C      617.670    -896.830       2.650
  O      617.331    -896.340       1.566
  N      617.598    -898.170       2.889
  C      617.835    -898.800       4.082
  O      617.669    -900.000       4.262
  C      618.307    -897.920       5.171
  C      618.442    -896.640       4.929
  O      621.816    -893.690       8.691
  O      619.529    -892.550       8.943
  H      616.433    -893.160       2.277
  H      620.087    -892.040       9.579
  H      617.238    -898.750       2.153
  H      618.517    -898.380       6.135
  H      618.804    -895.960       5.718
  H      618.351    -894.450       2.380
  H      616.157    -894.440       4.153
  H      617.575    -894.110       6.071
  H      619.064    -892.040       4.338
  H      621.016    -892.740       5.754
  H      619.723    -891.950       6.739
  P      615.404    -892.270       6.306
  C      614.023    -891.390       8.307
  O      615.325    -891.730       7.825
  O      614.753    -893.590       6.070
  O      614.636    -891.110       5.473
  H      613.954    -891.500       4.921
  H      614.095    -891.047       9.318
  H      613.391    -892.253       8.267
  H      613.608    -890.616       7.697

 6  7  8  9  10  11  12  13  14  15  16  26  31  32  33  34  35 0
 6-311+G(2d,p)
 ****
 36  37 0
 6-311+G(2d,p)
 ****
 1  2  3  4  5  17  18  19  20  21  22  23  24  25 0
 3-21G
 ****
 27  28  29  30  38  39  40  41  42  43  44  45 0
 3-21G
 ****


