%nproc=1
%NoSave
%Mem=1900MB
#P OB98/GEN NMR

erre ene a

0 1
  C     -235.942     376.256    -736.089
  O     -235.249     375.155    -736.643
  H     -236.890     375.906    -735.675
  H     -236.151     376.991    -736.871
  H     -235.360     376.719    -735.289
  P     -233.710     375.378    -737.025
  C     -232.642     373.703    -735.363
  O     -232.846     375.064    -735.705
  C     -231.758     373.593    -734.117
  O     -230.396     373.936    -734.485
  C     -232.183     374.526    -732.975
  O     -232.003     373.841    -731.731
  C     -231.196     375.677    -733.074
  O     -231.019     376.354    -731.832
  C     -229.948     374.963    -733.577
  N     -226.502     378.562    -732.821
  C     -227.165     377.754    -731.915
  N     -226.875     377.940    -730.611
  N     -228.043     376.845    -732.262
  C     -228.203     376.748    -733.604
  C     -227.614     377.488    -734.598
  C     -226.671     378.512    -734.202
  O     -226.069     379.271    -734.954
  N     -228.072     377.111    -735.837
  C     -228.937     376.145    -735.589
  N     -229.046     375.885    -734.250
  O     -233.597     376.969    -737.173
  O     -233.250     374.681    -738.263
  H     -230.703     377.260    -732.036
  H     -233.381     377.200    -738.098
  H     -225.849     379.254    -732.498
  H     -229.506     375.611    -736.332
  H     -229.383     374.486    -732.772
  H     -231.558     376.406    -733.811
  H     -226.176     378.587    -730.277
  H     -233.220     374.862    -733.058
  H     -227.319     377.336    -729.929
  H     -231.748     372.549    -733.791
  H     -232.154     373.192    -736.197
  H     -233.611     373.226    -735.174
  P     -233.179     372.854    -731.266
  C     -231.643     370.770    -731.227
  O     -232.813     371.368    -731.760
  O     -234.404     373.273    -732.212
  O     -233.537     372.979    -729.822
  H     -235.073     373.752    -731.690
  H     -231.523     369.790    -731.640
  H     -231.731     370.700    -730.163
  H     -230.792     371.368    -731.476

 6  7  8  9  10  11  12  13  14  15  26  29  33  34 0
 6-311+G(2d,p)
 ****
 36  38  39  40  41 0
 6-311+G(2d,p)
 ****
 1  2  3  4  5  16  17  18  19  20  21  22  23  24  25 0
 3-21G
 ****
 27  28  30  31  32  35  37  42  43  44  45  46  47 0
 3-21G
 ****
 48  49 0
 3-21G
 ****


