%nproc=1
%NoSave
%Mem=1900MB
#P OB98/GEN NMR

erre ene a

0 1
  C     -144.653     154.260     110.141
  O     -144.733     154.264     111.553
  H     -144.728     153.238     109.761
  H     -145.483     154.846     109.737
  H     -143.710     154.709     109.815
  P     -143.618     153.423     112.342
  C     -145.447     151.588     112.592
  O     -144.102     151.894     112.251
  C     -145.627     150.073     112.619
  O     -146.941     149.739     113.120
  C     -145.528     149.418     111.245
  O     -144.187     149.195     110.843
  C     -146.250     148.107     111.505
  O     -145.388     147.211     112.228
  C     -147.411     148.567     112.400
  N     -151.938     146.875     110.703
  C     -150.989     146.297     111.471
  N     -149.822     146.822     111.897
  C     -149.679     148.082     111.458
  C     -150.564     148.806     110.674
  C     -151.743     148.148     110.285
  N     -152.698     148.722     109.476
  N     -150.059     150.065     110.410
  C     -148.903     150.103     111.039
  N     -148.614     148.918     111.660
  O     -143.880     153.791     113.878
  O     -142.206     153.651     111.919
  H     -144.526     147.210     111.767
  H     -143.123     153.512     114.429
  H     -151.194     145.276     111.783
  H     -148.236     150.956     111.065
  H     -147.697     147.811     113.142
  H     -146.545     147.598     110.584
  H     -146.081     149.986     110.488
  H     -144.888     149.651     113.312
  H     -146.115     152.025     111.843
  H     -153.432     148.123     109.132
  H     -152.495     149.610     109.040
  H     -145.679     152.012     113.574
  P     -143.729     149.792     109.424
  C     -143.040     147.444     108.553
  O     -143.858     148.592     108.365
  O     -142.150     149.961     109.600
  O     -144.399     151.072     109.042
  H     -141.821     150.723     109.084
  H     -143.236     146.735     107.775
  H     -143.259     147.001     109.502
  H     -142.010     147.731     108.523

 6  7  8  9  10  11  12  13  14  15  25  28  32  33  34  35 0
 6-311+G(2d,p)
 ****
 36  39  40 0
 6-311+G(2d,p)
 ****
 1  2  3  4  5  16  17  18  19  20  21  22  23  24 0
 3-21G
 ****
 26  27  29  30  31  37  38  41  42  43  44  45  46  47 0
 3-21G
 ****
 48 0
 3-21G
 ****


