%nproc=1
%NoSave
%Mem=1900MB
#P OB98/GEN NMR

erre ene a

0 1
  C      129.954     -93.082       9.745
  O      128.602     -93.489       9.822
  H      130.404     -93.529       8.855
  H      130.513     -93.412      10.625
  H      130.012     -91.994       9.656
  P      127.800     -93.195      11.182
  C      127.638     -94.351      13.482
  O      128.314     -94.303      12.228
  C      128.310     -95.338      14.436
  O      128.156     -96.693      13.962
  C      129.812     -95.144      14.577
  O      130.194     -93.943      15.206
  C      130.243     -96.471      15.179
  O      130.057     -96.514      16.593
  C      129.267     -97.454      14.486
  N      129.919     -98.241      13.447
  C      129.763     -99.619      13.537
  O      129.139    -100.175      14.441
  N      130.382    -100.355      12.565
  C      131.162     -99.859      11.562
  O      131.708    -100.575      10.730
  C      131.323     -98.396      11.539
  C      130.702     -97.664      12.468
  O      126.308     -93.129      11.052
  O      128.460     -91.846      11.732
  H      130.580     -95.781      16.971
  H      127.894     -91.430      12.428
  H      130.268    -101.357      12.604
  H      131.945     -97.970      10.765
  H      130.803     -96.582      12.470
  H      128.844     -98.150      15.222
  H      131.295     -96.689      14.984
  H      130.248     -95.105      13.570
  H      127.806     -95.267      15.406
  H      126.609     -94.675      13.293
  H      127.618     -93.350      13.924
  P      131.174     -92.871      14.549
  C      133.262     -91.561      15.420
  O      132.487     -92.753      15.462
  O      130.549     -91.609      14.049
  O      131.731     -93.682      13.266
  H      131.869     -93.028      12.552
  H      134.095     -91.653      16.086
  H      132.656     -90.731      15.719
  H      133.618     -91.402      14.424

 6  7  8  9  10  11  12  13  14  15  16  26  31  32  33  34  35 0
 6-311+G(2d,p)
 ****
 36  37 0
 6-311+G(2d,p)
 ****
 1  2  3  4  5  17  18  19  20  21  22  23  24  25 0
 3-21G
 ****
 27  28  29  30  38  39  40  41  42  43  44  45 0
 3-21G
 ****


