%nproc=1
%NoSave
%Mem=1900MB
#P OB98/GEN NMR

erre ene a

0 1
  C      474.023    -517.496    -175.070
  O      473.423    -518.760    -175.363
  P      473.937    -520.045    -174.556
  C      471.641    -520.555    -173.436
  O      473.019    -520.235    -173.258
  C      470.870    -520.330    -172.137
  O      470.663    -518.933    -171.866
  C      469.475    -520.949    -172.140
  O      469.518    -522.339    -171.834
  C      468.810    -520.183    -171.010
  O      469.209    -520.733    -169.740
  C      469.397    -518.777    -171.182
  N      465.885    -515.054    -170.917
  C      466.506    -515.781    -169.956
  N      467.419    -516.763    -170.107
  C      467.684    -516.974    -171.402
  C      467.123    -516.321    -172.497
  C      466.183    -515.317    -172.210
  N      465.546    -514.586    -173.190
  N      467.633    -516.812    -173.681
  C      468.491    -517.736    -173.311
  N      468.554    -517.880    -171.947
  O      475.333    -519.548    -173.946
  O      474.115    -521.265    -175.402
  H      468.771    -520.202    -169.051
  H      475.965    -520.297    -173.915
  H      466.246    -515.530    -168.938
  H      469.100    -518.325    -173.992
  H      469.600    -518.292    -170.220
  H      467.718    -520.233    -171.051
  H      468.957    -520.752    -173.092
  H      471.454    -520.758    -171.311
  H      471.540    -521.595    -173.765
  H      464.914    -513.867    -172.907
  H      465.790    -514.755    -174.160
  H      471.241    -519.941    -174.244
  P      469.345    -523.365    -173.056
  C      471.805    -524.189    -172.896
  O      470.809    -523.552    -173.672
  O      468.565    -522.492    -174.148
  O      468.610    -524.615    -172.702
  H      468.006    -523.071    -174.701
  H      472.619    -524.507    -173.554
  H      471.403    -525.072    -172.387
  H      472.203    -523.483    -172.157
  H      473.579    -516.740    -175.684
  H      475.073    -517.545    -175.268
  H      473.865    -517.257    -174.039

 3  4  5  6  7  8  9  10  11  12  22  25  29  30  31  32 0
 6-311+G(2d,p)
 ****
 33  36  37 0
 6-311+G(2d,p)
 ****
 1  2  13  14  15  16  17  18  19  20  21  23  24  26 0
 3-21G
 ****
 27  28  34  35  38  39  40  41  42  43  44  45  46  47  48 0
 3-21G
 ****


