%nproc=1
%NoSave
%Mem=1900MB
#P OB98/GEN NMR

erre ene a

0 1
  C     -157.054     -57.762       9.611
  O     -155.650     -57.806       9.462
  H     -157.362     -58.340      10.487
  H     -157.360     -56.722       9.747
  H     -157.539     -58.159       8.714
  P     -154.991     -59.265       9.356
  C     -154.822     -61.249      11.016
  O     -154.918     -59.842      10.853
  C     -154.149     -61.580      12.341
  O     -152.721     -61.408      12.233
  C     -154.573     -60.697      13.510
  O     -155.829     -61.089      14.044
  C     -153.439     -60.966      14.489
  O     -153.675     -62.209      15.175
  C     -152.222     -61.100      13.561
  N     -148.503     -58.367      15.811
  C     -149.092     -59.537      16.148
  N     -150.079     -60.197      15.511
  C     -150.454     -59.540      14.400
  C     -149.945     -58.342      13.930
  C     -148.928     -57.741      14.690
  N     -148.345     -56.540      14.347
  N     -150.563     -57.978      12.753
  C     -151.431     -58.940      12.514
  N     -151.406     -59.905      13.487
  O     -153.457     -58.958       9.004
  O     -155.610     -60.175       8.348
  H     -152.954     -62.311      15.824
  H     -153.126     -59.651       8.402
  H     -148.716     -60.009      17.052
  H     -152.087     -58.983      11.654
  H     -151.579     -61.934      13.860
  H     -153.335     -60.187      15.249
  H     -154.567     -59.637      13.230
  H     -154.344     -62.637      12.564
  H     -154.230     -61.671      10.197
  H     -147.498     -56.263      14.812
  H     -148.665     -56.083      13.499
  H     -155.830     -61.677      10.981
  P     -156.861     -59.922      14.439
  C     -156.691     -57.787      15.903
  O     -156.103     -59.029      15.535
  O     -157.970     -60.695      15.296
  O     -157.460     -59.189      13.288
  H     -158.817     -60.212      15.255
  H     -156.079     -57.306      16.637
  H     -157.665     -57.960      16.310
  H     -156.771     -57.160      15.039

 6  7  8  9  10  11  12  13  14  15  25  28  32  33  34  35 0
 6-311+G(2d,p)
 ****
 36  39  40 0
 6-311+G(2d,p)
 ****
 1  2  3  4  5  16  17  18  19  20  21  22  23  24 0
 3-21G
 ****
 26  27  29  30  31  37  38  41  42  43  44  45  46  47  48 0
 3-21G
 ****


