%nproc=1
%NoSave
%Mem=1900MB
#P OB98/GEN NMR

erre ene a

0 1
  C      188.557     179.354    -223.390
  O      187.729     179.389    -222.238
  P      187.659     178.135    -221.232
  C      186.702     175.746    -221.467
  O      186.686     177.082    -221.948
  C      186.191     174.794    -222.548
  O      186.966     174.974    -223.753
  C      186.303     173.320    -222.197
  O      185.282     172.935    -221.284
  C      186.220     172.686    -223.580
  O      184.852     172.623    -224.023
  C      187.003     173.698    -224.439
  N      188.377     173.279    -224.705
  C      188.567     172.430    -225.802
  O      187.625     172.078    -226.504
  N      189.849     172.034    -226.104
  C      190.843     172.422    -225.364
  N      192.096     172.044    -225.750
  C      190.679     173.265    -224.169
  C      189.428     173.663    -223.903
  O      187.282     178.478    -219.834
  O      189.087     177.434    -221.360
  H      184.433     171.886    -223.538
  H      189.767     177.798    -220.739
  H      191.537     173.554    -223.577
  H      189.225     174.302    -223.056
  H      186.490     173.858    -225.397
  H      186.630     171.669    -223.622
  H      187.286     173.103    -221.747
  H      185.150     175.060    -222.772
  H      192.178     171.618    -226.668
  H      186.045     175.681    -220.595
  H      192.921     172.531    -225.417
  H      187.720     175.484    -221.161
  P      185.422     171.501    -220.581
  C      185.542     169.151    -221.683
  O      184.931     170.425    -221.678
  O      184.255     171.513    -219.483
  O      186.765     171.234    -219.986
  H      184.629     171.700    -218.599
  H      184.944     168.478    -222.300
  H      185.590     168.739    -220.666
  H      186.548     169.217    -222.103
  H      188.464     180.276    -223.924
  H      188.256     178.544    -224.021
  H      189.576     179.215    -223.093

 3  4  5  6  7  8  9  10  11  12  13  23  27  28  29  30  32 0
 6-311+G(2d,p)
 ****
 34  35 0
 6-311+G(2d,p)
 ****
 1  2  14  15  16  17  18  19  20  21  22  24  25  26 0
 3-21G
 ****
 31  33  36  37  38  39  40  41  42  43  44  45  46 0
 3-21G
 ****


