%nproc=1
%NoSave
%Mem=1900MB
#P OB98/GEN NMR

erre ene a

0 1
  C      -21.133      25.178     -31.876
  O      -21.961      24.104     -31.479
  H      -21.737      25.903     -32.428
  H      -20.332      24.819     -32.529
  H      -20.703      25.668     -30.999
  P      -21.230      22.878     -30.741
  C      -20.087      22.698     -28.403
  O      -20.658      23.539     -29.393
  C      -19.204      23.524     -27.473
  O      -18.212      24.253     -28.228
  C      -19.960      24.577     -26.671
  O      -20.643      24.036     -25.553
  C      -18.811      25.476     -26.251
  O      -18.078      24.853     -25.181
  C      -17.973      25.515     -27.549
  N      -18.316      26.640     -28.421
  C      -18.018      27.920     -27.940
  O      -17.504      28.070     -26.833
  N      -18.342      29.010     -28.713
  C      -18.903      28.837     -29.870
  N      -19.214      29.951     -30.587
  C      -19.218      27.507     -30.421
  C      -18.903      26.467     -29.654
  O      -19.903      22.652     -31.608
  O      -22.052      21.649     -30.542
  H      -18.673      24.825     -24.409
  H      -19.319      21.995     -31.159
  H      -19.696      27.414     -31.385
  H      -19.108      25.457     -29.993
  H      -16.902      25.564     -27.322
  H      -19.140      26.452     -25.891
  H      -20.642      25.154     -27.304
  H      -18.667      22.830     -26.813
  H      -19.042      30.850     -30.156
  H      -19.492      21.928     -28.905
  H      -19.809      29.923     -31.405
  H      -20.876      22.215     -27.819
  P      -21.956      24.804     -25.039
  C      -24.313      25.093     -26.091
  O      -22.913      25.000     -26.312
  O      -21.420      26.282     -24.753
  O      -22.610      24.200     -23.835
  H      -21.834      26.659     -23.953
  H      -24.814      25.221     -27.028
  H      -24.519      25.931     -25.459
  H      -24.660      24.197     -25.620

 6  7  8  9  10  11  12  13  14  15  16  26  30  31  32  33  35 0
 6-311+G(2d,p)
 ****
 37  38 0
 6-311+G(2d,p)
 ****
 1  2  3  4  5  17  18  19  20  21  22  23  24  25 0
 3-21G
 ****
 27  28  29  34  36  39  40  41  42  43  44  45  46 0
 3-21G
 ****


