%nproc=1
%NoSave
%Mem=1900MB
#P OB98/GEN NMR

erre ene a

0 1
  C     -240.252     488.093      51.978
  O     -240.761     488.067      53.315
  P     -241.592     486.760      53.746
  C     -243.748     487.796      52.725
  O     -242.890     486.664      52.808
  C     -245.047     487.423      52.016
  O     -244.841     487.217      50.595
  C     -245.662     486.127      52.525
  O     -246.283     486.320      53.786
  C     -246.626     485.797      51.386
  O     -247.828     486.584      51.493
  C     -245.822     486.244      50.150
  N     -245.929     483.139      46.087
  C     -246.753     484.136      46.484
  N     -246.655     484.915      47.583
  C     -245.568     484.591      48.304
  C     -244.637     483.603      48.021
  C     -244.850     482.850      46.855
  N     -244.018     481.822      46.453
  N     -243.658     483.566      48.989
  C     -244.005     484.493      49.856
  N     -245.143     485.155      49.479
  O     -242.182     487.156      55.177
  O     -240.764     485.521      53.810
  H     -248.185     486.453      52.393
  H     -241.724     486.653      55.880
  H     -247.607     484.331      45.843
  H     -243.466     484.733      50.766
  H     -246.454     486.745      49.406
  H     -246.925     484.749      51.369
  H     -244.896     485.345      52.606
  H     -245.756     488.250      52.144
  H     -243.247     488.609      52.186
  H     -244.290     481.285      45.650
  H     -243.263     481.543      47.064
  H     -243.937     488.168      53.736
  P     -245.517     485.775      55.086
  C     -247.082     483.766      55.418
  O     -245.781     484.186      55.052
  O     -246.483     486.272      56.255
  O     -244.090     486.191      55.195
  H     -247.422     486.083      56.058
  H     -247.137     482.676      55.320
  H     -247.835     484.223      54.764
  H     -247.285     484.037      56.459
  H     -239.722     489.008      51.816
  H     -241.065     488.024      51.286
  H     -239.589     487.266      51.833

 3  4  5  6  7  8  9  10  11  12  22  25  29  30  31  32 0
 6-311+G(2d,p)
 ****
 33  36  37 0
 6-311+G(2d,p)
 ****
 1  2  13  14  15  16  17  18  19  20  21  23  24  26 0
 3-21G
 ****
 27  28  34  35  38  39  40  41  42  43  44  45  46  47  48 0
 3-21G
 ****


