%nproc=1
%NoSave
%Mem=1900MB
#P OB98/GEN NMR

erre ene a

0 1
  C      377.725     373.887    -489.441
  O      376.873     373.693    -488.329
  H      377.111     374.080    -490.323
  H      378.318     372.986    -489.616
  H      378.383     374.742    -489.273
  P      377.578     373.479    -486.900
  C      376.294     375.180    -485.423
  O      376.464     373.820    -485.789
  C      374.812     375.505    -485.210
  O      374.139     375.468    -486.512
  C      374.075     374.535    -484.279
  O      373.099     375.274    -483.543
  C      373.344     373.617    -485.255
  O      372.231     372.952    -484.653
  C      372.978     374.624    -486.343
  N      370.737     375.376    -490.793
  C      371.003     376.259    -489.761
  N      370.619     377.538    -489.938
  N      371.599     375.913    -488.645
  C      371.965     374.608    -488.622
  C      371.752     373.629    -489.570
  C      371.063     374.023    -490.779
  O      370.782     373.283    -491.723
  N      372.243     372.420    -489.149
  C      372.754     372.661    -487.952
  N      372.607     373.976    -487.589
  O      378.586     374.725    -486.820
  O      378.280     372.176    -486.722
  H      371.833     373.571    -484.004
  H      379.468     374.465    -487.146
  H      370.259     375.690    -491.622
  H      373.231     371.930    -487.316
  H      372.130     375.258    -486.055
  H      374.029     372.853    -485.640
  H      370.192     377.889    -490.784
  H      374.726     373.988    -483.585
  H      370.844     378.208    -489.213
  H      374.728     376.535    -484.849
  H      376.693     375.823    -486.216
  H      376.850     375.375    -484.499
  P      372.781     374.822    -482.039
  C      374.131     376.585    -480.681
  O      372.850     376.121    -481.103
  O      374.096     374.014    -481.630
  O      371.549     373.988    -481.896
  H      373.880     373.339    -480.954
  H      374.011     377.453    -480.067
  H      374.721     376.833    -481.539
  H      374.622     375.817    -480.121

 6  7  8  9  10  11  12  13  14  15  26  29  33  34 0
 6-311+G(2d,p)
 ****
 36  38  39  40  41 0
 6-311+G(2d,p)
 ****
 1  2  3  4  5  16  17  18  19  20  21  22  23  24  25 0
 3-21G
 ****
 27  28  30  31  32  35  37  42  43  44  45  46  47 0
 3-21G
 ****
 48  49 0
 3-21G
 ****


