%nproc=1
%NoSave
%Mem=1900MB
#P OB98/GEN NMR

erre ene a

0 1
  C     -209.487    -615.721    1015.963
  O     -210.588    -615.763    1015.078
  P     -212.094    -615.557    1015.621
  C     -214.131    -614.156    1014.938
  O     -212.818    -614.615    1014.580
  C     -214.702    -613.276    1013.820
  O     -214.066    -611.966    1013.802
  C     -214.502    -613.822    1012.413
  O     -215.160    -615.031    1012.085
  C     -214.793    -612.612    1011.574
  O     -216.222    -612.421    1011.401
  C     -214.206    -611.464    1012.454
  N     -212.940    -610.953    1011.905
  C     -212.968    -609.700    1011.363
  O     -214.003    -608.973    1011.327
  N     -211.797    -609.222    1010.825
  C     -210.613    -609.925    1010.734
  O     -209.598    -609.494    1010.188
  C     -210.679    -611.295    1011.313
  C     -211.790    -611.746    1011.875
  O     -212.190    -615.104    1017.060
  O     -212.769    -616.987    1015.358
  H     -216.558    -613.206    1010.926
  H     -212.788    -617.257    1014.428
  H     -211.799    -608.294    1010.417
  H     -209.740    -611.870    1011.265
  H     -211.820    -612.713    1012.274
  H     -214.923    -610.612    1012.499
  H     -214.372    -612.682    1010.558
  H     -213.431    -614.043    1012.287
  H     -215.765    -613.098    1014.043
  H     -214.045    -613.552    1015.864
  H     -214.786    -615.023    1015.130
  P     -214.486    -616.213    1011.293
  C     -215.265    -618.687    1010.885
  O     -215.108    -617.628    1011.822
  O     -212.983    -616.156    1011.153
  O     -215.150    -616.097    1009.836
  H     -214.507    -616.397    1009.175
  H     -215.726    -619.529    1011.433
  H     -214.294    -619.030    1010.521
  H     -215.924    -618.382    1010.060
  H     -208.582    -615.878    1015.414
  H     -209.594    -616.488    1016.702
  H     -209.452    -614.765    1016.443

 3  4  5  6  7  8  9  10  11  12  13  23  28  29  30  31  32 0
 6-311+G(2d,p)
 ****
 33  34 0
 6-311+G(2d,p)
 ****
 1  2  14  15  16  17  18  19  20  21  22  24  25  26  27 0
 3-21G
 ****
 35  36  37  38  39  40  41  42  43  44  45 0
 3-21G
 ****


