%nproc=1
%NoSave
%Mem=1900MB
#P OB98/GEN NMR

erre ene a

0 1
  C      953.165     130.241    -513.822
  O      952.374     130.997    -514.714
  H      952.968     130.547    -512.790
  H      952.905     129.186    -513.927
  H      954.225     130.372    -514.056
  P      952.603     132.587    -514.721
  C      953.899     132.646    -516.976
  O      953.951     132.827    -515.563
  C      953.997     134.003    -517.660
  O      955.184     134.699    -517.225
  C      954.105     133.932    -519.182
  O      952.840     133.749    -519.803
  C      954.678     135.298    -519.492
  O      953.638     136.293    -519.410
  C      955.681     135.485    -518.345
  N      959.760     136.362    -521.311
  C      958.551     136.968    -521.236
  N      957.519     136.667    -520.418
  C      957.825     135.628    -519.627
  C      959.006     134.911    -519.599
  C      960.011     135.316    -520.490
  N      961.235     134.701    -520.581
  N      958.930     133.888    -518.669
  C      957.744     134.016    -518.129
  N      957.028     135.044    -518.680
  O      953.055     132.909    -513.223
  O      951.442     133.409    -515.161
  H      954.080     137.154    -519.273
  H      952.910     133.856    -513.026
  H      958.397     137.794    -521.918
  H      957.346     133.387    -517.334
  H      955.754     136.528    -518.016
  H      955.107     135.374    -520.492
  H      954.823     133.160    -519.498
  H      953.130     134.603    -517.364
  H      952.954     132.174    -517.244
  H      961.809     134.943    -521.372
  H      961.376     133.830    -520.073
  H      954.728     132.002    -517.284
  P      952.836     133.245    -521.327
  C      952.498     130.813    -520.453
  O      953.253     131.696    -521.279
  O      954.113     133.967    -521.955
  O      951.576     133.556    -522.079
  H      954.001     134.090    -522.920
  H      952.898     129.824    -520.530
  H      951.477     130.811    -520.773
  H      952.552     131.142    -519.436

 6  7  8  9  10  11  12  13  14  15  25  28  32  33  34  35 0
 6-311+G(2d,p)
 ****
 36  39  40 0
 6-311+G(2d,p)
 ****
 1  2  3  4  5  16  17  18  19  20  21  22  23  24 0
 3-21G
 ****
 26  27  29  30  31  37  38  41  42  43  44  45  46  47 0
 3-21G
 ****
 48 0
 3-21G
 ****


