%nproc=1
%NoSave
%Mem=1900MB
#P OB98/GEN NMR

erre ene a

0 1
  C      -72.663    -891.400      44.957
  O      -73.042    -892.240      43.881
  H      -72.505    -890.380      44.578
  H      -71.726    -891.750      45.407
  H      -73.453    -891.370      45.718
  P      -73.233    -893.790      44.211
  C      -75.045    -893.920      42.352
  O      -73.854    -894.470      42.895
  C      -75.380    -894.630      41.045
  O      -75.357    -896.080      41.248
  C      -76.785    -894.340      40.523
  O      -76.872    -893.080      39.857
  C      -77.001    -895.500      39.573
  O      -76.428    -895.250      38.276
  C      -76.262    -896.650      40.286
  N      -77.214    -897.570      40.919
  C      -77.982    -898.340      40.061
  O      -77.907    -898.260      38.831
  N      -78.897    -899.170      40.641
  C      -79.133    -899.280      41.989
  O      -80.004    -900.000      42.439
  C      -78.296    -898.440      42.864
  C      -77.395    -897.640      42.294
  O      -74.434    -893.810      45.262
  O      -72.008    -894.470      44.739
  H      -74.091    -894.000      46.151
  H      -76.938    -894.500      37.919
  H      -79.477    -899.740      40.029
  H      -78.456    -898.500      43.927
  H      -76.764    -896.990      42.919
  H      -75.652    -897.230      39.566
  H      -78.071    -895.710      39.420
  H      -77.532    -894.400      41.342
  H      -74.632    -894.370      40.288
  H      -74.894    -892.840      42.147
  H      -75.851    -894.020      43.086
  P      -78.314    -892.420      39.671
  C      -77.076    -890.370      38.561
  O      -78.154    -891.300      38.528
  O      -78.432    -891.580      41.049
  O      -79.406    -893.410      39.471
  H      -77.551    -891.310      41.390
  H      -77.146    -889.713      37.720
  H      -76.147    -890.899      38.523
  H      -77.125    -889.799      39.465

 6  7  8  9  10  11  12  13  14  15  16  27  31  32  33  34  35 0
 6-311+G(2d,p)
 ****
 36  37 0
 6-311+G(2d,p)
 ****
 1  2  3  4  5  17  18  19  20  21  22  23  24  25 0
 3-21G
 ****
 26  28  29  30  38  39  40  41  42  43  44  45 0
 3-21G
 ****


