%nproc=1
%NoSave
%Mem=1900MB
#P OB98/GEN NMR

erre ene a

0 1
  C     -155.099    -118.952     326.747
  O     -156.302    -119.390     327.393
  P     -156.299    -120.283     328.721
  C     -157.118    -118.631     330.527
  O     -157.441    -119.755     329.716
  C     -158.217    -117.563     330.477
  O     -158.151    -116.823     329.243
  C     -159.640    -118.106     330.550
  O     -159.970    -118.492     331.873
  C     -160.433    -116.921     330.013
  O     -160.664    -115.943     331.039
  C     -159.479    -116.362     328.933
  N     -159.877    -116.747     327.584
  C     -160.787    -115.905     326.938
  O     -161.258    -114.923     327.519
  N     -161.159    -116.206     325.647
  C     -160.725    -117.290     325.085
  N     -161.118    -117.534     323.809
  C     -159.838    -118.254     325.769
  C     -159.456    -117.917     327.002
  O     -154.953    -120.421     329.364
  O     -156.846    -121.718     328.258
  H     -160.919    -116.441     331.842
  H     -156.439    -122.407     328.816
  H     -159.517    -119.159     325.278
  H     -158.796    -118.566     327.572
  H     -159.442    -115.267     328.987
  H     -161.410    -117.212     329.618
  H     -159.747    -118.957     329.867
  H     -158.035    -116.857     331.301
  H     -161.722    -116.849     323.369
  H     -156.178    -118.202     330.154
  H     -160.839    -118.345     323.282
  H     -156.965    -118.969     331.558
  P     -161.231    -119.446     332.127
  C     -159.761    -121.382     332.949
  O     -160.820    -120.499     333.261
  O     -161.852    -120.040     330.905
  O     -162.273    -118.496     332.892
  H     -163.180    -118.771     332.660
  H     -159.321    -121.747     333.879
  H     -158.990    -120.882     332.360
  H     -160.156    -122.233     332.386
  H     -155.349    -118.372     325.883
  H     -154.523    -119.804     326.450
  H     -154.527    -118.354     327.425

 3  4  5  6  7  8  9  10  11  12  13  23  27  28  29  30  32 0
 6-311+G(2d,p)
 ****
 34  35 0
 6-311+G(2d,p)
 ****
 1  2  14  15  16  17  18  19  20  21  22  24  25  26 0
 3-21G
 ****
 31  33  36  37  38  39  40  41  42  43  44  45  46 0
 3-21G
 ****


