%nproc=1
%NoSave
%Mem=1900MB
#P OB98/GEN NMR

erre ene a

0 1
  C     -257.517      24.562     175.564
  O     -257.083      24.172     176.851
  P     -256.101      22.925     177.068
  C     -254.042      24.373     176.533
  O     -254.802      23.230     176.168
  C     -252.571      24.014     176.754
  O     -251.994      23.534     175.509
  C     -251.699      25.175     177.253
  O     -250.714      24.600     178.116
  C     -251.059      25.674     175.973
  O     -249.891      26.452     176.207
  C     -250.838      24.354     175.226
  N     -250.646      24.555     173.794
  C     -249.389      25.005     173.384
  O     -248.527      25.285     174.223
  N     -249.150      25.183     172.044
  C     -250.119      25.025     171.199
  N     -249.822      25.208     169.882
  C     -251.496      24.675     171.599
  C     -251.679      24.443     172.896
  O     -256.719      21.585     176.842
  O     -255.548      23.133     178.554
  H     -249.623      26.871     175.360
  H     -256.232      22.857     179.217
  H     -252.281      24.613     170.862
  H     -252.655      24.180     173.286
  H     -249.957      23.828     175.621
  H     -251.772      26.304     175.423
  H     -252.259      25.954     177.773
  H     -252.531      23.185     177.472
  H     -248.864      25.432     169.650
  H     -254.451      24.769     177.467
  H     -250.479      25.030     169.138
  H     -254.142      25.151     175.768
  P     -250.140      25.400     179.379
  C     -252.324      24.997     180.652
  O     -251.403      25.965     180.186
  O     -249.093      26.415     179.060
  O     -249.573      24.257     180.350
  H     -248.986      24.662     181.016
  H     -252.970      25.454     181.409
  H     -251.804      24.143     181.097
  H     -252.944      24.650     179.818
  H     -258.162      25.412     175.647
  H     -258.049      23.754     175.107
  H     -256.669      24.816     174.963

 3  4  5  6  7  8  9  10  11  12  13  23  27  28  29  30  32 0
 6-311+G(2d,p)
 ****
 34  35 0
 6-311+G(2d,p)
 ****
 1  2  14  15  16  17  18  19  20  21  22  24  25  26 0
 3-21G
 ****
 31  33  36  37  38  39  40  41  42  43  44  45  46 0
 3-21G
 ****


