%nproc=1
%NoSave
%Mem=1900MB
#P OB98/GEN NMR

erre ene a

0 1
  C     -123.149    -145.604    -200.877
  O     -122.782    -145.499    -202.237
  H     -124.083    -145.067    -200.691
  H     -123.293    -146.660    -200.633
  H     -122.354    -145.200    -200.242
  P     -122.628    -144.011    -202.819
  C     -120.051    -143.739    -202.756
  O     -121.295    -143.403    -202.161
  C     -118.995    -143.963    -201.680
  O     -119.434    -144.983    -200.757
  C     -117.645    -144.442    -202.199
  O     -116.876    -143.378    -202.740
  C     -117.029    -144.986    -200.917
  O     -116.490    -143.900    -200.139
  C     -118.243    -145.598    -200.199
  N     -116.299    -150.145    -198.814
  C     -115.956    -148.879    -198.481
  N     -116.507    -147.722    -198.894
  C     -117.531    -147.952    -199.734
  C     -117.994    -149.185    -200.164
  C     -117.328    -150.320    -199.674
  N     -117.672    -151.606    -200.035
  N     -119.071    -149.033    -201.012
  C     -119.259    -147.730    -201.093
  N     -118.348    -147.035    -200.344
  O     -123.803    -143.199    -202.090
  O     -122.721    -143.893    -204.304
  H     -116.090    -144.299    -199.344
  H     -124.159    -142.536    -202.709
  H     -115.128    -148.785    -197.782
  H     -120.037    -147.254    -201.675
  H     -118.235    -145.361    -199.128
  H     -116.216    -145.694    -201.098
  H     -117.764    -145.261    -202.919
  H     -118.885    -143.027    -201.115
  H     -119.727    -142.922    -203.411
  H     -117.293    -152.373    -199.506
  H     -118.451    -151.727    -200.673
  H     -120.181    -144.647    -203.357
  P     -116.609    -143.387    -204.325
  C     -117.643    -141.027    -204.637
  O     -117.722    -142.413    -204.951
  O     -117.105    -144.845    -204.766
  O     -115.199    -143.132    -204.731
  H     -116.649    -145.117    -205.584
  H     -118.443    -140.506    -205.120
  H     -116.706    -140.637    -204.977
  H     -117.720    -140.896    -203.578

 6  7  8  9  10  11  12  13  14  15  25  28  32  33  34  35 0
 6-311+G(2d,p)
 ****
 36  39  40 0
 6-311+G(2d,p)
 ****
 1  2  3  4  5  16  17  18  19  20  21  22  23  24 0
 3-21G
 ****
 26  27  29  30  31  37  38  41  42  43  44  45  46  47  48 0
 3-21G
 ****


