%nproc=1
%NoSave
%Mem=1900MB
#P OB98/GEN NMR

erre ene a

0 1
  C      290.436     -19.332     -32.062
  O      290.539     -18.375     -31.024
  P      289.891     -18.676     -29.592
  C      291.745     -17.309     -28.449
  O      290.340     -17.505     -28.596
  C      292.066     -15.819     -28.368
  O      291.431     -15.107     -29.451
  C      291.575     -15.147     -27.093
  O      292.417     -15.461     -26.000
  C      291.591     -13.680     -27.507
  O      292.917     -13.137     -27.398
  C      291.168     -13.765     -28.983
  N      287.952     -10.473     -31.184
  C      289.291     -10.450     -31.022
  N      290.075     -11.350     -30.387
  C      289.327     -12.338     -29.869
  C      287.949     -12.479     -29.923
  C      287.248     -11.494     -30.641
  N      285.889     -11.539     -30.867
  N      287.553     -13.614     -29.242
  C      288.669     -14.142     -28.779
  N      289.769     -13.443     -29.189
  O      290.098     -20.062     -29.075
  O      288.332     -18.383     -29.813
  H      293.147     -13.126     -26.450
  H      287.821     -19.197     -29.638
  H      289.805      -9.604     -31.469
  H      288.732     -15.031     -28.166
  H      291.755     -13.088     -29.615
  H      290.932     -13.062     -26.891
  H      290.542     -15.449     -26.885
  H      293.153     -15.698     -28.476
  H      292.245     -17.750     -29.318
  H      285.515     -10.865     -31.514
  H      285.409     -12.427     -30.738
  H      292.089     -17.823     -27.545
  P      291.799     -15.589     -24.530
  C      293.160     -17.709     -24.042
  O      292.870     -16.383     -23.639
  O      290.400     -16.110     -24.458
  O      291.893     -14.100     -23.950
  H      291.149     -13.941     -23.339
  H      292.356     -18.375     -23.719
  H      294.093     -18.024     -23.567
  H      293.276     -17.771     -25.128
  H      290.924     -18.961     -32.939
  H      289.404     -19.514     -32.278
  H      290.902     -20.244     -31.754

 3  4  5  6  7  8  9  10  11  12  22  25  29  30  31  32 0
 6-311+G(2d,p)
 ****
 33  36  37 0
 6-311+G(2d,p)
 ****
 1  2  13  14  15  16  17  18  19  20  21  23  24  26 0
 3-21G
 ****
 27  28  34  35  38  39  40  41  42  43  44  45  46  47  48 0
 3-21G
 ****


