%nproc=1
%NoSave
%Mem=1900MB
#P OB98/GEN NMR

erre ene a

0 1
  C     -328.703     315.667     187.982
  O     -330.000     315.110     187.818
  P     -330.272     313.665     188.467
  C     -330.975     312.472     186.272
  O     -329.993     312.607     187.292
  C     -330.629     311.312     185.348
  O     -329.615     311.718     184.413
  C     -330.063     310.087     186.052
  O     -331.083     309.284     186.624
  C     -329.385     309.370     184.894
  O     -330.361     308.614     184.155
  C     -328.858     310.540     184.045
  N     -324.237     310.275     181.991
  C     -325.462     309.910     181.468
  N     -325.455     309.428     180.205
  N     -326.589     310.004     182.123
  C     -326.446     310.539     183.355
  C     -325.290     310.940     183.986
  C     -324.044     310.786     183.269
  O     -322.922     311.033     183.707
  N     -325.551     311.448     185.233
  C     -326.864     311.390     185.343
  N     -327.450     310.817     184.243
  O     -331.864     313.632     188.620
  O     -329.584     313.412     189.763
  H     -330.748     307.963     184.772
  H     -332.116     313.015     189.334
  H     -323.404     310.199     181.437
  H     -327.423     311.750     186.196
  H     -329.033     310.365     182.978
  H     -328.616     308.665     185.221
  H     -324.642     309.453     179.610
  H     -329.312     310.374     186.797
  H     -326.347     309.187     179.792
  H     -331.529     311.046     184.780
  H     -331.018     313.394     185.686
  H     -331.950     312.311     186.743
  P     -330.626     308.236     187.753
  C     -331.478     306.271     186.283
  O     -330.391     306.856     186.977
  O     -331.967     307.990     188.589
  O     -329.503     308.712     188.613
  H     -331.751     307.716     189.502
  H     -332.116     307.033     185.824
  H     -332.069     305.668     186.976
  H     -331.085     305.625     185.495
  H     -328.663     316.623     187.504
  H     -327.977     315.017     187.541
  H     -328.493     315.780     189.025

 3  4  5  6  7  8  9  10  11  12  23  26  30  31  33  0
 6-311+G(2d,p)
 ****
 35  36  37  38 0
 6-311+G(2d,p)
 ****
 1  2  13  14  15  16  17  18  19  20  21  22  24  25  27  28  29 0
 3-21G
 ****
 32  34  39  40  41  42  43  44  45  46  47  48  49 0
 3-21G
 ****


