%nproc=1
%NoSave
%Mem=1900MB
#P OB98/GEN NMR

erre ene a

0 1
  C     -123.420     -57.787     366.609
  O     -122.932     -58.997     367.161
  H     -123.038     -56.951     367.202
  H     -124.513     -57.760     366.637
  H     -123.074     -57.675     365.578
  P     -123.478     -60.378     366.559
  C     -124.736     -60.561     368.813
  O     -124.797     -60.723     367.399
  C     -125.253     -61.818     369.508
  O     -126.511     -62.221     368.936
  C     -124.322     -63.012     369.355
  O     -123.202     -62.894     370.209
  C     -125.269     -64.152     369.671
  O     -125.448     -64.307     371.087
  C     -126.575     -63.665     369.002
  N     -126.776     -64.243     367.677
  C     -127.559     -65.403     367.623
  O     -128.038     -65.878     368.651
  N     -127.759     -66.000     366.402
  C     -127.242     -65.483     365.334
  N     -127.476     -66.128     364.159
  C     -126.425     -64.256     365.341
  C     -126.231     -63.695     366.536
  O     -122.497     -61.507     366.460
  O     -124.060     -59.961     365.126
  H     -126.226     -64.887     371.195
  H     -123.366     -60.028     364.444
  H     -126.017     -63.859     364.426
  H     -125.643     -62.788     366.633
  H     -127.444     -63.918     369.621
  H     -124.901     -65.097     369.280
  H     -124.006     -63.113     368.312
  H     -125.424     -61.582     370.566
  H     -128.034     -66.971     364.200
  H     -125.363     -59.701     369.068
  H     -127.204     -65.769     363.256
  H     -123.709     -60.347     369.134
  P     -121.719     -62.821     369.606
  C     -121.544     -65.384     369.342
  O     -121.574     -64.121     368.674
  O     -120.630     -62.627     370.606
  O     -121.822     -61.630     368.536
  H     -121.856     -60.747     368.980
  H     -121.445     -66.167     368.620
  H     -122.452     -65.518     369.892
  H     -120.712     -65.412     370.015

 6  7  8  9  10  11  12  13  14  15  16  26  30  31  32  33  35 0
 6-311+G(2d,p)
 ****
 37  38 0
 6-311+G(2d,p)
 ****
 1  2  3  4  5  17  18  19  20  21  22  23  24  25 0
 3-21G
 ****
 27  28  29  34  36  39  40  41  42  43  44  45  46 0
 3-21G
 ****


