%nproc=1
%NoSave
%Mem=1900MB
#P OB98/GEN NMR

erre ene a

0 1
  C      112.142    -162.839     -57.192
  O      113.090    -163.785     -56.743
  P      114.541    -163.888     -57.411
  C      113.924    -166.199     -58.373
  O      114.403    -164.889     -58.664
  C      114.309    -167.167     -59.499
  O      113.734    -168.479     -59.204
  C      113.791    -166.721     -60.880
  O      114.792    -166.662     -61.897
  C      112.651    -167.693     -61.141
  O      112.304    -167.818     -62.507
  C      113.154    -168.957     -60.433
  N      112.090    -169.933     -60.206
  C      112.054    -171.040     -61.051
  O      112.855    -171.249     -61.958
  N      111.006    -171.900     -60.867
  C      109.952    -171.709     -60.024
  O      108.997    -172.472     -59.980
  C      110.026    -170.501     -59.185
  C      111.084    -169.692     -59.292
  O      115.651    -164.228     -56.477
  O      114.709    -162.471     -58.137
  H      111.449    -168.287     -62.558
  H      114.034    -162.272     -58.811
  H      110.967    -172.704     -61.473
  H      109.200    -170.319     -58.512
  H      111.168    -168.796     -58.687
  H      113.951    -169.442     -61.002
  H      111.763    -167.315     -60.619
  H      113.392    -165.698     -60.840
  H      115.399    -167.260     -59.498
  H      112.837    -166.164     -58.290
  H      114.317    -166.533     -57.409
  P      115.220    -165.337     -62.690
  C      113.371    -165.933     -64.416
  O      114.022    -164.927     -63.667
  O      116.570    -165.388     -63.331
  O      115.178    -164.198     -61.562
  H      115.821    -163.500     -61.779
  H      112.984    -165.489     -65.337
  H      112.528    -166.323     -63.838
  H      114.049    -166.749     -64.676
  H      111.244    -162.934     -56.618
  H      111.925    -163.014     -58.225
  H      112.539    -161.852     -57.073

 3  4  5  6  7  8  9  10  11  12  13  23  28  29  30  31  32 0
 6-311+G(2d,p)
 ****
 33  34 0
 6-311+G(2d,p)
 ****
 1  2  14  15  16  17  18  19  20  21  22  24  25  26  27 0
 3-21G
 ****
 35  36  37  38  39  40  41  42  43  44  45 0
 3-21G
 ****


