%nproc=1
%NoSave
%Mem=1900MB
#P OB98/GEN NMR

erre ene a

0 1
  C     -698.492     926.080    -473.163
  O     -699.209     925.732    -471.997
  H     -698.553     925.236    -473.861
  H     -697.438     926.251    -472.925
  H     -698.922     926.960    -473.637
  P     -699.361     926.843    -470.833
  C     -701.872     926.779    -470.265
  O     -700.840     927.452    -470.975
  C     -702.976     926.333    -471.228
  O     -702.443     925.314    -472.117
  C     -704.192     925.732    -470.514
  O     -705.378     926.134    -471.212
  C     -704.001     924.230    -470.679
  O     -705.232     923.515    -470.643
  C     -703.286     924.150    -472.033
  N     -703.549     919.131    -472.549
  C     -704.550     920.086    -472.541
  N     -705.822     919.632    -472.663
  N     -704.334     921.374    -472.416
  C     -703.019     921.687    -472.318
  C     -701.938     920.841    -472.311
  C     -702.195     919.418    -472.430
  O     -701.349     918.532    -472.434
  N     -700.765     921.539    -472.151
  C     -701.133     922.803    -472.074
  N     -702.492     922.939    -472.157
  O     -698.272     927.863    -470.781
  O     -699.438     925.986    -469.495
  H     -705.029     922.589    -470.910
  H     -698.582     925.970    -469.029
  H     -703.771     918.165    -472.627
  H     -700.460     923.640    -471.935
  H     -703.988     924.165    -472.880
  H     -703.356     923.855    -469.875
  H     -706.060     918.663    -472.779
  H     -704.272     926.026    -469.479
  H     -706.573     920.317    -472.680
  H     -703.263     927.186    -471.846
  H     -702.280     927.466    -469.519
  H     -701.451     925.910    -469.753
  P     -706.409     927.127    -470.476
  C     -707.175     928.778    -472.303
  O     -706.322     928.566    -471.184
  O     -706.329     927.145    -468.987
  O     -707.838     926.587    -470.980
  H     -708.489     926.751    -470.280
  H     -707.025     929.767    -472.684
  H     -708.195     928.663    -472.001
  H     -706.947     928.064    -473.066

 6  7  8  9  10  11  12  13  14  15  26  29  33  34 0
 6-311+G(2d,p)
 ****
 36  38  39  40  41 0
 6-311+G(2d,p)
 ****
 1  2  3  4  5  16  17  18  19  20  21  22  23  24  25 0
 3-21G
 ****
 27  28  30  31  32  35  37  42  43  44  45  46  47 0
 3-21G
 ****
 48  49 0
 3-21G
 ****


