%nproc=1
%NoSave
%Mem=1900MB
#P OB98/GEN NMR

erre ene a

0 1
  C      -34.190      27.169     -30.459
  O      -34.689      26.115     -29.661
  H      -34.391      26.938     -31.509
  H      -33.112      27.285     -30.326
  H      -34.698      28.104     -30.206
  P      -34.292      26.093     -28.105
  C      -33.078      23.821     -28.282
  O      -32.948      25.216     -28.017
  C      -31.766      23.085     -28.000
  O      -30.727      23.571     -28.872
  C      -31.236      23.298     -26.591
  O      -32.010      22.684     -25.583
  C      -29.765      22.935     -26.737
  O      -29.509      21.542     -26.593
  C      -29.471      23.373     -28.192
  N      -28.629      24.562     -28.245
  C      -27.264      24.332     -28.371
  O      -26.765      23.208     -28.414
  N      -26.472      25.447     -28.404
  C      -26.901      26.735     -28.274
  O      -26.135      27.691     -28.269
  C      -28.353      26.914     -28.118
  C      -29.141      25.836     -28.111
  O      -35.370      25.645     -27.164
  O      -33.772      27.579     -27.825
  H      -28.538      21.430     -26.568
  H      -33.749      27.772     -26.858
  H      -25.481      25.300     -28.505
  H      -28.729      27.922     -28.009
  H      -30.216      25.942     -27.995
  H      -28.951      22.570     -28.730
  H      -29.151      23.451     -25.996
  H      -31.265      24.374     -26.377
  H      -31.916      22.020     -28.209
  H      -33.334      23.706     -29.341
  H      -33.889      23.404     -27.676
  P      -32.008      23.165     -24.060
  C      -31.813      20.811     -22.979
  O      -31.202      22.079     -23.191
  O      -33.295      23.700     -23.522
  O      -30.963      24.394     -24.118
  H      -31.263      25.064     -23.475
  H      -31.165      20.197     -22.388
  H      -31.990      20.338     -23.922
  H      -32.743      20.944     -22.467

 6  7  8  9  10  11  12  13  14  15  16  26  31  32  33  34  35 0
 6-311+G(2d,p)
 ****
 36  37 0
 6-311+G(2d,p)
 ****
 1  2  3  4  5  17  18  19  20  21  22  23  24  25 0
 3-21G
 ****
 27  28  29  30  38  39  40  41  42  43  44  45 0
 3-21G
 ****


