%nproc=1
%NoSave
%Mem=1900MB
#P OB98/GEN NMR

erre ene a

0 1
  C      165.887     390.101     501.816
  O      167.137     390.490     501.287
  H      165.942     390.130     502.908
  H      165.657     389.079     501.507
  H      165.092     390.775     501.489
  P      167.249     390.814     499.722
  C      169.385     389.499     499.126
  O      167.967     389.547     499.046
  C      169.917     388.178     498.557
  O      169.329     387.075     499.307
  C      169.578     387.954     497.075
  O      170.641     387.177     496.506
  C      168.311     387.130     497.167
  O      168.032     386.471     495.951
  C      168.640     386.232     498.362
  N      167.454     385.609     498.941
  C      167.022     384.427     498.354
  O      167.570     383.918     497.376
  N      165.904     383.858     498.900
  C      165.158     384.381     499.912
  O      164.144     383.843     500.342
  C      165.636     385.659     500.466
  C      166.746     386.204     499.964
  O      167.855     392.132     499.376
  O      165.748     390.689     499.183
  H      167.257     385.879     496.056
  H      165.610     391.292     498.426
  H      165.584     382.992     498.492
  H      165.059     386.106     501.265
  H      167.121     387.145     500.355
  H      169.331     385.428     498.065
  H      167.452     387.769     497.397
  H      169.444     388.885     496.519
  H      171.001     388.132     498.726
  H      169.667     389.590     500.179
  H      169.813     390.340     498.569
  P      171.881     387.854     495.751
  C      172.010     386.335     493.671
  O      171.702     387.634     494.168
  O      173.217     387.443     496.272
  O      171.662     389.430     495.931
  H      172.524     389.886     495.911
  H      171.854     386.312     492.613
  H      171.375     385.613     494.141
  H      173.033     386.104     493.886

 6  7  8  9  10  11  12  13  14  15  16  26  31  32  33  34  35 0
 6-311+G(2d,p)
 ****
 36  37 0
 6-311+G(2d,p)
 ****
 1  2  3  4  5  17  18  19  20  21  22  23  24  25 0
 3-21G
 ****
 27  28  29  30  38  39  40  41  42  43  44  45 0
 3-21G
 ****


