%nproc=1
%NoSave
%Mem=1900MB
#P OB98/GEN NMR

erre ene a

0 1
  C     -159.178     108.246       0.387
  O     -160.454     107.636       0.459
  P     -161.277     107.760       1.828
  C     -161.954     106.149       3.748
  O     -161.101     106.385       2.638
  C     -161.416     105.008       4.614
  O     -161.335     103.793       3.824
  C     -160.020     105.276       5.183
  O     -159.909     104.667       6.478
  C     -159.106     104.513       4.245
  O     -157.866     104.190       4.870
  C     -159.981     103.306       3.913
  N     -156.336     100.677       1.602
  C     -156.512     100.933       2.946
  N     -155.537     100.503       3.776
  N     -157.556     101.552       3.435
  C     -158.448     101.931       2.486
  C     -158.389     101.718       1.127
  C     -157.224     101.043       0.600
  O     -156.993     100.810      -0.583
  N     -159.497     102.217       0.495
  C     -160.209     102.770       1.458
  N     -159.595     102.653       2.680
  O     -162.800     107.714       1.335
  O     -161.006     109.002       2.607
  H     -158.077     103.849       5.761
  H     -163.191     108.606       1.382
  H     -155.508     100.207       1.273
  H     -161.152     103.282       1.325
  H     -159.954     102.556       4.713
  H     -158.893     105.113       3.354
  H     -154.679     100.081       3.455
  H     -159.754     106.336       5.255
  H     -155.622     100.718       4.761
  H     -162.132     104.817       5.423
  H     -162.946     105.883       3.384
  H     -162.042     107.065       4.342
  P     -159.402     105.625       7.663
  C     -156.992     106.224       8.441
  O     -157.856     105.908       7.368
  O     -159.379     104.655       8.936
  O     -160.257     106.830       7.882
  H     -159.481     105.171       9.757
  H     -156.233     105.442       8.528
  H     -157.526     106.310       9.391
  H     -156.497     107.177       8.229
  H     -158.756     108.078      -0.582
  H     -158.538     107.823       1.133
  H     -159.276     109.298       0.556

 3  4  5  6  7  8  9  10  11  12  23  26  30  31 0
 6-311+G(2d,p)
 ****
 33  35  36  37  38 0
 6-311+G(2d,p)
 ****
 1  2  13  14  15  16  17  18  19  20  21  22  24  25 0
 3-21G
 ****
 27  28  29  32  34  39  40  41  42  43  44  45  46  47  48  49 0
 3-21G
 ****


