%nproc=1
%NoSave
%Mem=1900MB
#P OB98/GEN NMR

erre ene a

0 1
  C       21.037      81.908    -106.808
  O       20.978      80.553    -106.421
  H       22.085      82.184    -106.954
  H       20.615      82.535    -106.018
  H       20.495      82.081    -107.742
  P       19.591      79.770    -106.568
  C       20.249      77.865    -108.180
  O       19.559      79.099    -108.027
  C       19.325      76.753    -108.678
  O       18.697      77.144    -109.918
  C       20.083      75.459    -108.978
  O       20.314      74.620    -107.862
  C       19.160      74.785    -109.988
  O       18.132      74.033    -109.321
  C       18.555      75.972    -110.741
  N       19.468      74.174    -115.434
  C       18.837      73.554    -114.374
  N       18.454      72.274    -114.573
  N       18.623      74.136    -113.223
  C       19.146      75.382    -113.138
  C       19.803      76.094    -114.116
  C       19.988      75.460    -115.406
  O       20.547      75.963    -116.376
  N       20.187      77.333    -113.663
  C       19.830      77.341    -112.395
  N       19.171      76.188    -112.036
  O       18.508      80.945    -106.706
  O       19.250      78.853    -105.434
  H       17.522      73.682    -109.995
  H       17.640      80.635    -106.392
  H       19.582      73.688    -116.306
  H       20.000      78.158    -111.704
  H       17.481      75.832    -110.913
  H       19.703      74.080    -110.625
  H       18.701      71.749    -115.397
  H       21.033      75.681    -109.475
  H       18.235      71.708    -113.750
  H       18.525      76.593    -107.946
  H       20.649      77.606    -107.197
  H       21.100      77.987    -108.856
  P       21.613      73.685    -107.818
  C       23.086      75.294    -106.396
  O       22.879      74.651    -107.636
  O       21.735      73.176    -109.329
  O       21.539      72.551    -106.854
  H       21.325      72.295    -109.422
  H       23.969      75.896    -106.449
  H       23.201      74.558    -105.628
  H       22.244      75.915    -106.171

 6  7  8  9  10  11  12  13  14  15  26  29  33  34 0
 6-311+G(2d,p)
 ****
 36  38  39  40  41 0
 6-311+G(2d,p)
 ****
 1  2  3  4  5  16  17  18  19  20  21  22  23  24  25 0
 3-21G
 ****
 27  28  30  31  32  35  37  42  43  44  45  46  47 0
 3-21G
 ****
 48  49 0
 3-21G
 ****


