%nproc=1
%NoSave
%Mem=1900MB
#P OB98/GEN NMR

erre ene a

0 1
  C      646.675     125.641    -156.000
  O      645.866     124.495    -156.183
  H      646.191     126.300    -155.273
  H      646.779     126.177    -156.951
  H      647.661     125.355    -155.622
  P      646.470     123.316    -157.083
  C      645.523     123.045    -159.517
  O      646.348     123.777    -158.620
  C      644.060     123.427    -159.306
  O      643.872     124.852    -159.398
  C      643.119     122.869    -160.369
  O      642.927     121.479    -160.256
  C      641.867     123.689    -160.082
  O      641.152     123.165    -158.951
  C      642.474     125.073    -159.753
  N      642.343     126.021    -160.853
  C      641.031     126.382    -161.191
  O      640.077     125.922    -160.558
  N      640.834     127.238    -162.248
  C      641.857     127.710    -162.894
  N      641.596     128.546    -163.938
  C      643.255     127.377    -162.553
  C      643.423     126.530    -161.541
  O      645.357     122.174    -156.963
  O      647.850     122.873    -156.711
  H      640.943     122.235    -159.165
  H      644.460     122.478    -157.192
  H      644.075     127.797    -163.121
  H      644.417     126.228    -161.232
  H      641.993     125.510    -158.870
  H      641.169     123.683    -160.923
  H      643.475     123.141    -161.371
  H      643.764     123.107    -158.295
  H      640.624     128.734    -164.151
  H      645.661     121.968    -159.388
  H      642.301     128.946    -164.533
  H      645.835     123.300    -160.536
  P      642.717     120.575    -161.561
  C      640.264     119.980    -162.084
  O      641.278     120.980    -162.160
  O      642.911     119.104    -161.360
  O      643.716     121.224    -162.626
  H      643.547     122.165    -162.830
  H      639.358     120.358    -162.509
  H      640.096     119.719    -161.060
  H      640.577     119.112    -162.626

 6  7  8  9  10  11  12  13  14  15  16  26  30  31  32  33  35 0
 6-311+G(2d,p)
 ****
 37  38 0
 6-311+G(2d,p)
 ****
 1  2  3  4  5  17  18  19  20  21  22  23  24  25 0
 3-21G
 ****
 27  28  29  34  36  39  40  41  42  43  44  45  46 0
 3-21G
 ****


