%nproc=1
%NoSave
%Mem=1900MB
#P OB98/GEN NMR

erre ene a

0 1
  C     -201.810     428.716     553.663
  O     -202.310     428.012     552.520
  P     -203.861     427.616     552.432
  C     -203.515     425.122     551.963
  O     -204.048     426.082     552.877
  C     -203.795     423.671     552.378
  O     -203.379     422.749     551.339
  C     -203.112     423.222     553.676
  O     -204.006     422.288     554.294
  C     -201.863     422.525     553.165
  O     -201.285     421.658     554.132
  C     -202.416     421.831     551.905
  N     -201.368     421.491     550.948
  C     -201.055     420.138     550.807
  O     -201.621     419.295     551.499
  N     -200.085     419.773     549.902
  C     -199.410     420.691     549.276
  N     -198.450     420.268     548.413
  C     -199.633     422.141     549.463
  C     -200.625     422.457     550.297
  O     -204.524     427.971     551.133
  O     -204.544     428.435     553.641
  H     -200.988     422.198     554.889
  H     -205.460     428.654     553.405
  H     -199.034     422.863     548.947
  H     -200.885     423.498     550.502
  H     -202.947     420.911     552.171
  H     -201.110     423.268     552.883
  H     -202.864     424.048     554.356
  H     -204.893     423.557     552.480
  H     -198.300     419.268     548.335
  H     -202.431     425.277     551.896
  H     -197.791     420.882     547.970
  H     -203.925     425.309     550.966
  P     -204.966     422.701     555.504
  C     -203.644     421.374     557.257
  O     -204.074     422.658     556.842
  O     -206.246     421.939     555.583
  O     -205.238     424.272     555.296
  H     -206.026     424.538     555.817
  H     -202.887     421.480     558.031
  H     -203.201     420.811     556.416
  H     -204.504     420.817     557.660
  H     -200.761     428.891     553.543
  H     -201.976     428.130     554.543
  H     -202.320     429.652     553.756

 3  4  5  6  7  8  9  10  11  12  13  23  27  28  29  30  32 0
 6-311+G(2d,p)
 ****
 34  35 0
 6-311+G(2d,p)
 ****
 1  2  14  15  16  17  18  19  20  21  22  24  25  26 0
 3-21G
 ****
 31  33  36  37  38  39  40  41  42  43  44  45  46 0
 3-21G
 ****


