%nproc=1
%NoSave
%Mem=1900MB
#P OB98/GEN NMR

erre ene a

0 1
  C      168.910    -513.121     591.510
  O      168.168    -514.077     592.268
  P      166.923    -513.651     593.189
  C      168.220    -512.894     595.274
  O      167.349    -512.490     594.235
  C      168.060    -512.062     596.565
  O      169.025    -512.480     597.580
  C      168.231    -510.540     596.381
  O      167.369    -509.924     597.351
  C      169.696    -510.342     596.757
  O      170.013    -508.986     597.066
  C      169.828    -511.321     597.919
  N      174.515    -509.648     599.064
  C      173.321    -509.012     599.063
  N      172.116    -509.538     598.771
  C      172.217    -510.850     598.516
  C      173.366    -511.619     598.482
  C      174.573    -510.965     598.770
  N      175.793    -511.591     598.736
  N      173.061    -512.928     598.161
  C      171.766    -512.942     597.969
  N      171.204    -511.715     598.181
  O      166.200    -514.802     593.832
  O      165.928    -512.885     592.179
  H      169.332    -508.663     597.673
  H      165.019    -513.199     592.326
  H      173.355    -507.959     599.315
  H      171.180    -513.818     597.653
  H      169.416    -510.893     598.841
  H      170.321    -510.640     595.902
  H      167.984    -510.201     595.367
  H      167.070    -512.286     596.973
  H      169.277    -512.829     594.934
  H      176.610    -510.996     598.851
  H      175.858    -512.534     598.386
  H      168.025    -513.968     595.505
  P      165.830    -509.639     597.017
  C      166.146    -507.148     596.527
  O      165.790    -508.412     595.998
  O      164.972    -509.462     598.236
  O      165.342    -510.886     596.140
  H      164.381    -510.953     596.157
  H      165.313    -506.741     597.127
  H      166.356    -506.453     595.694
  H      167.046    -507.217     597.143
  H      169.690    -513.619     590.973
  H      169.338    -512.397     592.171
  H      168.258    -512.631     590.818

 3  4  5  6  7  8  9  10  11  12  22  25  29  30  31  32 0
 6-311+G(2d,p)
 ****
 33  36  37 0
 6-311+G(2d,p)
 ****
 1  2  13  14  15  16  17  18  19  20  21  23  24  26 0
 3-21G
 ****
 27  28  34  35  38  39  40  41  42  43  44  45  46  47  48 0
 3-21G
 ****


