%nproc=1
%NoSave
%Mem=1900MB
#P OB98/GEN NMR

erre ene a

0 1
  C      818.965     228.684    -398.391
  O      819.090     227.984    -399.614
  H      817.904     228.893    -398.215
  H      819.508     229.629    -398.433
  H      819.342     228.073    -397.566
  P      820.586     227.624    -400.079
  C      819.892     228.896    -402.212
  O      820.543     227.743    -401.680
  C      818.796     228.488    -403.200
  O      819.422     227.931    -404.388
  C      817.839     227.421    -402.645
  O      816.524     227.671    -403.152
  C      818.378     226.128    -403.254
  O      817.383     225.109    -403.318
  C      818.871     226.626    -404.617
  N      819.620     222.988    -408.101
  C      818.586     223.823    -407.874
  N      818.478     224.777    -406.929
  C      819.615     224.877    -406.217
  C      820.749     224.093    -406.334
  C      820.732     223.099    -407.330
  N      821.765     222.229    -407.553
  N      821.686     224.464    -405.390
  C      821.132     225.461    -404.716
  N      819.868     225.727    -405.179
  O      821.132     226.338    -399.556
  O      821.390     228.946    -399.652
  H      816.786     225.300    -404.074
  H      820.916     229.754    -399.925
  H      817.716     223.686    -408.531
  H      821.587     226.005    -403.898
  H      818.057     226.718    -405.361
  H      819.209     225.751    -402.659
  H      817.824     227.382    -401.560
  H      818.249     229.385    -403.519
  H      820.627     229.538    -402.731
  H      821.671     221.537    -408.287
  H      822.606     222.292    -406.989
  H      819.462     229.460    -401.376
  P      815.274     227.510    -402.170
  C      814.003     226.139    -403.939
  O      813.951     227.239    -403.040
  O      815.131     228.571    -401.126
  O      815.529     226.080    -401.483
  H      815.335     226.131    -400.530
  H      813.071     226.059    -404.459
  H      814.184     225.238    -403.390
  H      814.793     226.292    -404.644

 6  7  8  9  10  11  12  13  14  15  25  28  32  33  34  35 0
 6-311+G(2d,p)
 ****
 36  39  40 0
 6-311+G(2d,p)
 ****
 1  2  3  4  5  16  17  18  19  20  21  22  23  24 0
 3-21G
 ****
 26  27  29  30  31  37  38  41  42  43  44  45  46  47 0
 3-21G
 ****
 48 0
 3-21G
 ****


