%nproc=1
%NoSave
%Mem=1900MB
#P OB98/GEN NMR

erre ene a

0 1
  C       66.929    -555.071     -14.969
  O       66.886    -554.309     -16.177
  P       65.559    -554.373     -17.071
  C       64.535    -551.971     -16.623
  O       65.130    -552.892     -17.508
  C       64.350    -550.622     -17.346
  O       65.622    -549.957     -17.479
  C       63.767    -550.765     -18.747
  O       62.334    -550.794     -18.724
  C       64.329    -549.543     -19.457
  O       63.604    -548.352     -19.068
  C       65.765    -549.512     -18.878
  N       66.807    -550.323     -19.528
  C       67.474    -549.826     -20.645
  O       67.265    -548.718     -21.148
  N       68.450    -550.642     -21.185
  C       68.923    -551.798     -20.637
  O       69.820    -552.457     -21.134
  C       68.285    -552.198     -19.374
  C       67.273    -551.472     -18.899
  O       64.427    -554.805     -16.042
  O       65.655    -555.307     -18.243
  H       63.764    -547.696     -19.759
  H       64.070    -555.682     -16.282
  H       68.887    -550.321     -22.030
  H       68.660    -553.089     -18.887
  H       66.797    -551.769     -17.959
  H       66.144    -548.470     -18.846
  H       64.241    -549.630     -20.531
  H       64.154    -551.654     -19.238
  H       63.704    -549.970     -16.736
  H       65.134    -551.832     -15.727
  H       63.558    -552.360     -16.301
  P       61.537    -551.691     -19.777
  C       60.740    -553.317     -17.958
  O       60.358    -552.377     -18.948
  O       62.369    -552.607     -20.611
  O       60.755    -550.619     -20.678
  H       61.253    -550.413     -21.499
  H       59.875    -553.580     -17.367
  H       61.514    -552.883     -17.302
  H       61.143    -554.214     -18.446
  H       67.874    -554.925     -14.488
  H       66.802    -556.109     -15.197
  H       66.144    -554.750     -14.317

 3  4  5  6  7  8  9  10  11  12  13  23  28  29  30  31  32 0
 6-311+G(2d,p)
 ****
 33  34 0
 6-311+G(2d,p)
 ****
 1  2  14  15  16  17  18  19  20  21  22  24  25  26  27 0
 3-21G
 ****
 35  36  37  38  39  40  41  42  43  44  45 0
 3-21G
 ****


