%nproc=1
%NoSave
%Mem=1900MB
#P OB98/GEN NMR

erre ene a

0 1
  C     -305.279     256.116     385.918
  O     -303.953     256.325     385.417
  P     -303.306     255.089     384.619
  C     -302.152     254.046     386.698
  O     -303.106     253.875     385.661
  C     -301.407     252.747     387.003
  O     -300.289     252.982     387.912
  C     -302.286     251.659     387.635
  O     -301.815     250.394     387.149
  C     -301.942     251.771     389.115
  O     -302.312     250.599     389.832
  C     -300.440     252.043     389.014
  N     -297.320     251.059     392.858
  C     -297.764     250.235     391.840
  N     -297.250     248.980     391.810
  N     -298.614     250.610     390.928
  C     -299.007     251.908     391.061
  C     -298.624     252.822     392.013
  C     -297.697     252.384     393.045
  O     -297.268     253.068     393.969
  N     -299.214     254.055     391.798
  C     -299.993     253.841     390.755
  N     -299.862     252.590     390.234
  O     -301.812     255.585     384.323
  O     -304.034     254.736     383.357
  H     -302.331     250.835     390.785
  H     -301.744     255.903     383.398
  H     -296.665     250.708     393.548
  H     -300.649     254.581     390.309
  H     -299.873     251.140     388.781
  H     -302.464     252.630     389.559
  H     -296.549     248.640     392.452
  H     -303.360     251.775     387.448
  H     -297.533     248.372     391.057
  H     -300.978     252.367     386.063
  H     -302.650     254.389     387.615
  H     -301.455     254.852     386.415
  P     -302.328     249.919     385.705
  C     -303.574     247.816     386.591
  O     -303.665     249.069     385.932
  O     -301.247     248.796     385.290
  O     -302.405     250.996     384.674
  H     -301.057     248.874     384.333
  H     -304.524     247.593     387.079
  H     -302.779     247.818     387.351
  H     -303.353     247.031     385.853
  H     -305.610     256.996     386.429
  H     -305.278     255.289     386.597
  H     -305.940     255.907     385.103

 3  4  5  6  7  8  9  10  11  12  23  26  30  31 0
 6-311+G(2d,p)
 ****
 33  35  36  37  38 0
 6-311+G(2d,p)
 ****
 1  2  13  14  15  16  17  18  19  20  21  22  24  25 0
 3-21G
 ****
 27  28  29  32  34  39  40  41  42  43  44  45  46  47  48  49 0
 3-21G
 ****


