%nproc=1
%NoSave
%Mem=1900MB
#P OB98/GEN NMR

erre ene a

0 1
  C       57.637     -24.570     -49.456
  O       58.738     -24.421     -50.335
  P       58.940     -22.988     -51.033
  C       58.297     -24.010     -53.333
  O       58.042     -23.002     -52.363
  C       57.556     -23.726     -54.640
  O       56.131     -23.754     -54.387
  C       57.899     -22.375     -55.270
  O       57.910     -22.544     -56.688
  C       56.722     -21.498     -54.889
  O       56.558     -20.411     -55.797
  C       55.575     -22.520     -54.886
  N       54.444     -22.078     -54.078
  C       53.585     -21.138     -54.655
  O       53.843     -20.665     -55.761
  N       52.487     -20.722     -53.944
  C       52.322     -21.125     -52.723
  N       51.218     -20.686     -52.062
  C       53.273     -22.019     -52.034
  C       54.288     -22.469     -52.770
  O       60.434     -23.073     -51.596
  O       58.741     -21.820     -50.124
  H       55.629     -20.096     -55.731
  H       60.861     -22.195     -51.585
  H       53.109     -22.295     -51.003
  H       55.022     -23.147     -52.356
  H       55.221     -22.705     -55.909
  H       56.874     -21.088     -53.883
  H       58.865     -21.983     -54.938
  H       57.778     -24.539     -55.342
  H       50.590     -20.062     -52.550
  H       57.949     -24.972     -52.946
  H       51.009     -20.946     -51.108
  H       59.375     -24.082     -53.506
  P       59.178     -21.985     -57.495
  C       57.689     -20.023     -58.217
  O       58.918     -20.409     -57.635
  O       58.859     -22.494     -58.983
  O       60.539     -22.411     -57.060
  H       59.601     -22.269     -59.573
  H       57.583     -18.939     -58.126
  H       56.853     -20.503     -57.703
  H       57.680     -20.288     -59.279
  H       57.624     -25.566     -49.066
  H       56.728     -24.384     -49.988
  H       57.727     -23.873     -48.650

 3  4  5  6  7  8  9  10  11  12  13  21  23  27  28  29  30  32 0
 6-311+G(2d,p)
 ****
 34  35 0
 6-311+G(2d,p)
 ****
 1  2  14  15  16  17  18  19  20  22  24  25  26 0
 3-21G
 ****
 31  33  36  37  38  39  40  41  42  43  44  45  46 0
 3-21G
 ****


