%nproc=1
%NoSave
%Mem=1900MB
#P OB98/GEN NMR

erre ene a

0 1
  C      -43.725    -479.263    -175.949
  O      -42.889    -478.133    -175.794
  P      -42.229    -477.817    -174.372
  C      -40.220    -476.492    -173.471
  O      -40.876    -476.999    -174.630
  C      -38.982    -475.689    -173.870
  O      -37.995    -476.557    -174.471
  C      -39.253    -474.602    -174.901
  O      -39.876    -473.482    -174.302
  C      -37.850    -474.346    -175.435
  O      -37.129    -473.466    -174.559
  C      -37.238    -475.754    -175.405
  N      -35.896    -475.206    -180.297
  C      -35.917    -474.334    -179.263
  N      -36.326    -474.547    -177.994
  C      -36.768    -475.807    -177.850
  C      -36.846    -476.798    -178.818
  C      -36.358    -476.464    -180.093
  N      -36.274    -477.361    -181.136
  N      -37.392    -477.951    -178.284
  C      -37.648    -477.657    -177.027
  N      -37.229    -476.398    -176.704
  O      -42.095    -478.990    -173.454
  O      -43.203    -476.715    -173.739
  H      -37.549    -472.583    -174.622
  H      -43.582    -477.057    -172.906
  H      -35.546    -473.339    -179.485
  H      -38.114    -478.323    -176.315
  H      -36.203    -475.741    -175.042
  H      -37.854    -473.885    -176.426
  H      -39.879    -475.003    -175.710
  H      -38.546    -475.260    -172.958
  H      -39.928    -477.339    -172.845
  H      -35.777    -477.060    -181.958
  H      -36.322    -478.356    -180.921
  H      -40.916    -475.860    -172.909
  P      -40.454    -472.305    -175.220
  C      -41.998    -470.287    -174.881
  O      -41.514    -471.494    -174.329
  O      -40.938    -472.717    -176.574
  O      -39.230    -471.280    -175.331
  H      -39.256    -470.831    -176.196
  H      -41.247    -469.500    -174.758
  H      -42.907    -469.998    -174.346
  H      -42.234    -470.406    -175.941
  H      -44.073    -479.313    -176.960
  H      -44.562    -479.181    -175.288
  H      -43.173    -480.150    -175.717

 3  4  5  6  7  8  9  10  11  12  22  25  29  30  31  32 0
 6-311+G(2d,p)
 ****
 33  36  37 0
 6-311+G(2d,p)
 ****
 1  2  13  14  15  16  17  18  19  20  21  23  24  26 0
 3-21G
 ****
 27  28  34  35  38  39  40  41  42  43  44  45  46  47  48 0
 3-21G
 ****


