%nproc=1
%NoSave
%Mem=1900MB
#P OB98/GEN NMR

erre ene a

0 1
  C      445.492     571.110     144.812
  O      444.356     571.904     144.440
  P      443.202     571.205     143.577
  C      444.254     571.574     141.224
  O      443.856     570.647     142.226
  C      444.801     570.844     139.991
  O      446.107     570.288     140.217
  C      443.926     569.684     139.540
  O      442.822     570.118     138.759
  C      444.916     568.892     138.694
  O      445.013     569.493     137.376
  C      446.228     569.067     139.451
  N      449.024     564.824     140.122
  C      448.942     565.693     139.086
  N      448.152     566.792     138.972
  C      447.421     566.968     140.091
  C      447.412     566.164     141.220
  C      448.266     565.055     141.231
  N      448.361     564.170     142.288
  N      446.537     566.656     142.171
  C      446.024     567.746     141.618
  N      446.528     567.977     140.356
  O      442.310     572.437     143.076
  O      442.381     570.215     144.349
  H      445.801     569.088     136.937
  H      441.369     572.172     143.033
  H      449.576     565.476     138.236
  H      445.298     568.406     142.075
  H      447.091     569.187     138.780
  H      444.597     567.843     138.525
  H      443.606     569.073     140.412
  H      444.881     571.590     139.165
  H      445.015     572.259     141.611
  H      449.026     563.413     142.217
  H      447.818     564.356     143.116
  H      443.390     572.214     140.942
  P      441.417     570.302     139.498
  C      441.005     567.745     139.661
  O      441.173     568.955     140.351
  O      440.367     570.211     138.317
  O      441.291     571.578     140.262
  H      439.570     570.747     138.515
  H      441.164     566.909     140.351
  H      441.714     567.633     138.825
  H      439.989     567.680     139.262
  H      446.174     571.707     145.381
  H      445.981     570.753     143.930
  H      445.168     570.278     145.402

 3  4  5  6  7  8  9  10  11  12  22  25  29  30  31  32 0
 6-311+G(2d,p)
 ****
 33  36  37 0
 6-311+G(2d,p)
 ****
 1  2  13  14  15  16  17  18  19  20  21  23  24  26 0
 3-21G
 ****
 27  28  34  35  38  39  40  41  42  43  44  45  46  47  48 0
 3-21G
 ****


