%nproc=1
%NoSave
%Mem=1900MB
#P OB98/GEN NMR

erre ene a

0 1
  C     -294.494     178.764      43.041
  O     -294.322     178.521      41.661
  H     -295.103     179.666      43.162
  H     -293.531     178.922      43.528
  H     -295.017     177.925      43.512
  P     -293.368     177.312      41.212
  C     -294.685     177.502      38.997
  O     -293.433     177.244      39.613
  C     -294.723     176.926      37.573
  O     -293.842     177.718      36.722
  C     -294.251     175.462      37.482
  O     -294.949     174.856      36.389
  C     -292.783     175.646      37.149
  O     -292.206     174.443      36.696
  C     -292.863     176.811      36.159
  N     -291.580     177.460      35.951
  C     -291.071     177.415      34.647
  O     -291.690     176.833      33.761
  N     -289.852     177.993      34.396
  C     -289.172     178.514      35.373
  N     -287.967     179.064      35.053
  C     -289.651     178.533      36.770
  C     -290.851     177.995      36.985
  O     -293.600     176.011      41.906
  O     -291.892     177.865      41.491
  H     -291.223     174.507      36.694
  H     -291.527     177.447      42.291
  H     -289.037     178.965      37.544
  H     -291.285     177.965      37.980
  H     -293.249     176.477      35.186
  H     -292.219     175.944      38.042
  H     -294.424     174.901      38.407
  H     -295.739     177.037      37.171
  H     -287.679     179.020      34.086
  H     -294.820     178.587      38.962
  H     -287.349     179.480      35.730
  H     -295.496     177.063      39.591
  P     -296.300     174.009      36.580
  C     -297.432     175.278      34.638
  O     -297.122     174.011      35.203
  O     -297.107     174.416      37.769
  O     -295.814     172.488      36.721
  H     -296.441     172.010      37.297
  H     -297.978     175.139      33.728
  H     -296.526     175.808      34.432
  H     -298.026     175.841      35.328

 6  7  8  9  10  11  12  13  14  15  16  26  30  31  32  33  35 0
 6-311+G(2d,p)
 ****
 37  38 0
 6-311+G(2d,p)
 ****
 1  2  3  4  5  17  18  19  20  21  22  23  24  25 0
 3-21G
 ****
 27  28  29  34  36  39  40  41  42  43  44  45  46 0
 3-21G
 ****


