%nproc=1
%NoSave
%Mem=1900MB
#P OB98/GEN NMR

erre ene a

0 1
  C      -45.212      22.360    -181.049
  O      -44.829      22.189    -182.403
  P      -43.340      21.667    -182.697
  C      -43.977      19.161    -182.402
  O      -43.199      20.257    -181.941
  C      -43.071      17.978    -182.740
  O      -42.099      18.346    -183.738
  C      -42.258      17.460    -181.560
  O      -43.011      16.599    -180.722
  C      -41.167      16.681    -182.279
  O      -41.666      15.390    -182.676
  C      -40.906      17.556    -183.512
  N      -35.853      17.813    -183.512
  C      -36.684      16.787    -183.915
  N      -36.082      15.650    -184.319
  N      -37.989      16.871    -183.923
  C      -38.452      18.069    -183.486
  C      -37.726      19.159    -183.062
  C      -36.284      19.048    -183.046
  O      -35.499      19.901    -182.653
  N      -38.549      20.195    -182.702
  C      -39.766      19.735    -182.905
  N      -39.764      18.434    -183.338
  O      -42.425      22.645    -181.819
  O      -42.948      21.671    -184.134
  H      -40.999      15.008    -183.281
  H      -41.498      22.599    -182.123
  H      -34.853      17.699    -183.518
  H      -40.676      20.300    -182.737
  H      -40.737      16.957    -184.411
  H      -40.288      16.504    -181.652
  H      -35.085      15.501    -184.276
  H      -41.805      18.286    -180.997
  H      -36.668      14.859    -184.561
  H      -43.697      17.180    -183.157
  H      -44.529      19.463    -183.294
  H      -44.697      18.878    -181.629
  P      -42.539      16.493    -179.190
  C      -44.187      18.275    -178.257
  O      -42.848      17.930    -178.549
  O      -40.945      16.453    -179.303
  O      -43.086      15.312    -178.459
  H      -40.561      15.991    -178.536
  H      -44.188      19.147    -177.597
  H      -44.704      17.453    -177.752
  H      -44.713      18.531    -179.181
  H      -46.222      22.710    -181.006
  H      -44.567      23.075    -180.583
  H      -45.136      21.424    -180.536

 3  4  5  6  7  8  9  10  11  12  23  26  30  31 0
 6-311+G(2d,p)
 ****
 33  35  36  37  38 0
 6-311+G(2d,p)
 ****
 1  2  13  14  15  16  17  18  19  20  21  22  24  25 0
 3-21G
 ****
 27  28  29  32  34  39  40  41  42  43  44  45  46  47  48  49 0
 3-21G
 ****


