%nproc=1
%NoSave
%Mem=1900MB
#P OB98/GEN NMR

erre ene a

0 1
  C     -500.667    -795.766     443.602
  O     -500.672    -796.095     442.228
  P     -499.312    -796.508     441.484
  C     -498.897    -798.334     443.245
  O     -498.373    -797.179     442.596
  C     -498.216    -799.591     442.704
  O     -498.683    -799.902     441.364
  C     -496.707    -799.465     442.550
  O     -495.942    -799.322     443.731
  C     -496.396    -800.653     441.662
  O     -496.323    -801.863     442.412
  C     -497.634    -800.675     440.727
  N     -497.323    -800.171     439.395
  C     -497.030    -801.134     438.436
  O     -497.021    -802.341     438.660
  N     -496.708    -800.660     437.191
  C     -496.610    -799.342     436.833
  O     -496.273    -798.989     435.712
  C     -496.919    -798.370     437.897
  C     -497.255    -798.817     439.114
  O     -498.664    -795.417     440.697
  O     -499.749    -797.769     440.600
  H     -496.071    -802.580     441.798
  H     -500.097    -798.523     441.112
  H     -496.476    -801.336     436.482
  H     -496.862    -797.322     437.642
  H     -497.485    -798.125     439.907
  H     -498.021    -801.703     440.627
  H     -495.439    -800.541     441.143
  H     -496.496    -798.559     441.958
  H     -498.486    -800.432     443.344
  H     -499.976    -798.396     443.048
  H     -498.756    -798.238     444.325
  P     -494.481    -798.663     443.763
  C     -494.612    -796.152     444.398
  O     -494.625    -797.113     443.372
  O     -493.373    -799.438     443.123
  O     -494.205    -798.579     445.348
  H     -493.256    -798.670     445.502
  H     -494.763    -795.163     443.959
  H     -493.649    -796.157     444.917
  H     -495.422    -796.346     445.112
  H     -501.661    -795.520     443.913
  H     -500.024    -794.927     443.765
  H     -500.313    -796.602     444.168

 3  4  5  6  7  8  9  10  11  12  13  23  28  29  30  31  32 0
 6-311+G(2d,p)
 ****
 33  34 0
 6-311+G(2d,p)
 ****
 1  2  14  15  16  17  18  19  20  21  22  24  25  26  27 0
 3-21G
 ****
 35  36  37  38  39  40  41  42  43  44  45 0
 3-21G
 ****


