%nproc=1
%NoSave
%Mem=1900MB
#P OB98/GEN NMR

erre ene a

0 1
  C      339.073     270.412     113.850
  O      338.195     269.295     114.019
  P      337.642     268.604     112.680
  C      338.497     266.253     113.389
  O      337.391     267.052     112.988
  C      338.013     264.941     113.998
  O      337.518     265.127     115.341
  C      336.855     264.311     113.231
  O      337.308     263.708     112.029
  C      336.322     263.332     114.272
  O      337.134     262.149     114.310
  C      336.495     264.125     115.577
  N      332.557     263.843     118.832
  C      333.621     263.032     118.625
  N      334.626     263.176     117.737
  C      334.468     264.301     117.020
  C      333.441     265.225     117.119
  C      332.449     264.962     118.076
  N      331.357     265.778     118.274
  N      333.619     266.252     116.214
  C      334.724     265.938     115.564
  N      335.278     264.776     116.023
  O      338.917     268.602     111.714
  O      336.486     269.325     112.068
  H      337.248     261.842     113.386
  H      338.797     269.251     111.000
  H      333.669     262.151     119.258
  H      335.156     266.520     114.758
  H      336.843     263.494     116.403
  H      335.291     263.019     114.075
  H      336.094     265.070     113.002
  H      338.860     264.246     114.030
  H      339.108     266.796     114.116
  H      330.652     265.474     118.929
  H      331.218     266.568     117.660
  H      339.136     266.074     112.515
  P      336.595     264.143     110.659
  C      338.855     263.424     109.677
  O      337.445     263.377     109.532
  O      337.080     265.654     110.506
  O      335.121     263.922     110.621
  H      338.038     265.747     110.682
  H      339.307     262.839     108.870
  H      339.152     262.991     110.635
  H      339.204     264.457     109.605
  H      339.370     270.781     114.810
  H      338.566     271.186     113.312
  H      339.939     270.105     113.302

 3  4  5  6  7  8  9  10  11  12  22  25  29  30  31  32 0
 6-311+G(2d,p)
 ****
 33  36  37 0
 6-311+G(2d,p)
 ****
 1  2  13  14  15  16  17  18  19  20  21  23  24  26 0
 3-21G
 ****
 27  28  34  35  38  39  40  41  42  43  44  45  46  47  48 0
 3-21G
 ****


