%nproc=1
%NoSave
%Mem=1900MB
#P OB98/GEN NMR

erre ene a

0 1
  C      281.993    -470.949    -296.779
  O      280.651    -471.404    -296.795
  P      279.557    -470.526    -296.001
  C      277.604    -470.526    -297.715
  O      278.667    -469.800    -297.117
  C      277.669    -470.399    -299.239
  O      278.851    -471.043    -299.751
  C      276.502    -471.055    -299.971
  O      275.347    -470.236    -299.986
  C      277.078    -471.193    -301.373
  O      276.981    -469.939    -302.065
  C      278.549    -471.530    -301.081
  N      280.058    -475.331    -304.080
  C      280.087    -473.963    -304.289
  N      280.534    -473.557    -305.512
  N      279.727    -473.081    -303.404
  C      279.288    -473.624    -302.245
  C      279.209    -474.963    -301.914
  C      279.610    -475.940    -302.910
  O      279.549    -477.154    -302.802
  N      278.729    -475.137    -300.647
  C      278.530    -473.908    -300.199
  N      278.809    -472.959    -301.152
  O      280.425    -469.327    -295.384
  O      278.799    -471.276    -294.957
  H      277.242    -469.239    -301.430
  H      279.927    -468.890    -294.664
  H      280.340    -475.970    -304.799
  H      278.157    -473.662    -299.208
  H      279.232    -471.036    -301.779
  H      276.549    -471.932    -301.976
  H      280.766    -474.191    -306.253
  H      276.286    -472.046    -299.566
  H      280.512    -472.566    -305.715
  H      277.725    -469.331    -299.489
  H      276.647    -470.126    -297.358
  H      277.671    -471.580    -297.426
  P      274.067    -470.773    -299.177
  C      273.873    -468.694    -297.623
  O      274.161    -470.077    -297.732
  O      274.437    -472.299    -298.882
  O      272.769    -470.628    -299.893
  H      273.621    -472.841    -298.780
  H      273.726    -468.447    -296.565
  H      272.966    -468.435    -298.172
  H      274.717    -468.100    -298.004
  H      282.605    -471.623    -297.341
  H      282.343    -470.907    -295.769
  H      282.044    -469.973    -297.215

 3  4  5  6  7  8  9  10  11  12  23  26  30  31 0
 6-311+G(2d,p)
 ****
 33  35  36  37  38 0
 6-311+G(2d,p)
 ****
 1  2  13  14  15  16  17  18  19  20  21  22  24  25 0
 3-21G
 ****
 27  28  29  32  34  39  40  41  42  43  44  45  46  47  48  49 0
 3-21G
 ****


