%nproc=1
%NoSave
%Mem=1900MB
#P OB98/GEN NMR

erre ene a

0 1
  C     -651.017    1373.315    -896.650
  O     -650.989    1371.949    -896.260
  P     -651.901    1371.395    -895.040
  C     -653.974    1370.999    -896.570
  O     -652.988    1370.371    -895.720
  C     -654.499    1369.961    -897.540
  O     -653.535    1369.526    -898.500
  C     -654.968    1368.614    -896.870
  O     -656.058    1368.721    -895.950
  C     -655.095    1367.696    -898.060
  O     -656.354    1367.895    -898.750
  C     -653.910    1368.193    -898.970
  N     -652.776    1367.251    -898.920
  C     -653.087    1365.988    -899.380
  O     -654.189    1365.608    -899.800
  N     -652.030    1365.062    -899.320
  C     -650.776    1365.326    -898.770
  O     -649.928    1364.442    -898.700
  C     -650.560    1366.696    -898.320
  C     -651.518    1367.581    -898.390
  O     -652.485    1372.468    -894.200
  O     -650.893    1370.364    -894.280
  H     -656.385    1367.251    -899.460
  H     -650.570    1369.639    -894.820
  H     -652.206    1364.111    -899.590
  H     -649.587    1366.935    -897.910
  H     -651.409    1368.622    -898.050
  H     -654.248    1368.312    -900.000
  H     -655.043    1366.660    -897.790
  H     -654.101    1368.287    -896.250
  H     -655.376    1370.409    -898.100
  H     -653.512    1371.797    -897.110
  H     -654.758    1371.404    -895.920
  P     -656.205    1367.756    -894.660
  C     -654.756    1369.505    -893.280
  O     -655.989    1368.665    -893.380
  O     -655.531    1366.391    -894.710
  O     -657.813    1367.545    -894.620
  H     -658.014    1366.648    -894.260
  H     -654.767    1369.966    -892.300
  H     -654.798    1370.237    -894.090
  H     -653.907    1368.842    -893.380
  H     -650.345    1373.466    -897.469
  H     -650.717    1373.928    -895.825
  H     -652.010    1373.580    -896.949

 3  4  5  6  7  8  9  10  11  12  13  23  28  29  30  31  32 0
 6-311+G(2d,p)
 ****
 33  34 0
 6-311+G(2d,p)
 ****
 1  2  14  15  16  17  18  19  20  21  22  24  25  26  27 0
 3-21G
 ****
 35  36  37  38  39  40  41  42  43  44  45 0
 3-21G
 ****


