%nproc=1
%NoSave
%Mem=1900MB
#P OB98/GEN NMR

erre ene a

0 1
  C       63.672    -158.852     -79.792
  O       64.916    -159.508     -80.064
  P       65.646    -160.274     -78.857
  C       67.328    -159.653     -76.968
  O       66.661    -159.247     -78.153
  C       68.348    -158.589     -76.537
  O       69.546    -158.642     -77.347
  C       67.823    -157.160     -76.656
  O       67.047    -156.789     -75.524
  C       69.128    -156.374     -76.664
  O       69.622    -156.226     -75.320
  C       70.054    -157.288     -77.484
  N       72.312    -154.310     -80.902
  C       72.520    -154.420     -79.538
  N       73.480    -153.624     -79.011
  N       71.853    -155.236     -78.762
  C       70.937    -155.979     -79.432
  C       70.637    -155.962     -80.778
  C       71.375    -155.045     -81.621
  O       71.224    -154.892     -82.834
  N       69.644    -156.860     -81.081
  C       69.357    -157.436     -79.929
  N       70.104    -156.925     -78.892
  O       66.636    -161.280     -79.618
  O       64.715    -161.001     -77.941
  H       69.612    -157.117     -74.919
  H       66.801    -162.065     -79.067
  H       72.851    -153.661     -81.450
  H       68.624    -158.223     -79.796
  H       71.087    -157.279     -77.111
  H       69.001    -155.363     -77.068
  H       74.064    -153.010     -79.553
  H       67.282    -157.012     -77.603
  H       73.669    -153.717     -78.016
  H       68.625    -158.784     -75.494
  H       67.837    -160.609     -77.124
  H       66.584    -159.835     -76.184
  P       65.554    -156.257     -75.790
  C       64.456    -153.907     -75.961
  O       65.645    -154.660     -75.777
  O       64.803    -156.614     -74.417
  O       64.869    -156.869     -76.969
  H       63.862    -156.807     -74.593
  H       64.676    -152.855     -75.765
  H       63.674    -154.240     -75.275
  H       64.106    -154.006     -76.996
  H       63.310    -158.389     -80.686
  H       63.819    -158.106     -79.039
  H       62.958    -159.570     -79.447

 3  4  5  6  7  8  9  10  11  12  23  26  30  31 0
 6-311+G(2d,p)
 ****
 33  35  36  37  38 0
 6-311+G(2d,p)
 ****
 1  2  13  14  15  16  17  18  19  20  21  22  24  25 0
 3-21G
 ****
 27  28  29  32  34  39  40  41  42  43  44  45  46  47  48  49 0
 3-21G
 ****


