%nproc=1
%NoSave
%Mem=1900MB
#P OB98/GEN NMR

erre ene a

0 1
  C      265.484    -318.505      75.359
  O      264.526    -319.293      76.028
  H      264.974    -317.663      74.881
  H      265.973    -319.102      74.586
  H      266.235    -318.113      76.050
  P      265.018    -320.302      77.166
  C      262.840    -320.647      78.510
  O      263.769    -321.217      77.598
  C      261.582    -321.503      78.645
  O      260.788    -321.399      77.446
  C      261.902    -322.989      78.835
  O      262.120    -323.378      80.180
  C      260.650    -323.654      78.267
  O      259.637    -323.810      79.273
  C      260.185    -322.678      77.187
  N      258.869    -325.526      73.147
  C      258.314    -325.510      74.415
  N      257.314    -326.388      74.636
  N      258.728    -324.713      75.368
  C      259.797    -323.964      75.028
  C      260.444    -323.911      73.813
  C      259.939    -324.740      72.740
  O      260.380    -324.779      71.601
  N      261.523    -323.057      73.852
  C      261.579    -322.671      75.112
  N      260.504    -323.131      75.843
  O      265.208    -319.355      78.448
  O      266.284    -321.046      76.867
  H      258.827    -324.148      78.837
  H      265.926    -319.703      79.008
  H      258.494    -326.137      72.447
  H      262.341    -322.023      75.533
  H      259.099    -322.527      77.221
  H      260.878    -324.659      77.894
  H      257.018    -327.080      73.965
  H      262.755    -323.284      78.216
  H      257.011    -326.540      75.601
  H      260.969    -321.117      79.472
  H      262.582    -319.662      78.113
  H      263.307    -320.498      79.486
  P      263.512    -324.015      80.640
  C      263.836    -322.779      82.932
  O      263.585    -323.977      82.231
  O      264.573    -322.905      80.191
  O      263.825    -325.355      80.061
  H      264.991    -323.148      79.342
  H      263.843    -322.976      83.984
  H      263.069    -322.067      82.708
  H      264.786    -322.385      82.636

 6  7  8  9  10  11  12  13  14  15  26  29  33  34 0
 6-311+G(2d,p)
 ****
 36  38  39  40  41 0
 6-311+G(2d,p)
 ****
 1  2  3  4  5  16  17  18  19  20  21  22  23  24  25 0
 3-21G
 ****
 27  28  30  31  32  35  37  42  43  44  45  46  47 0
 3-21G
 ****
 48  49 0
 3-21G
 ****


