%nproc=1
%NoSave
%Mem=1900MB
#P OB98/GEN NMR

erre ene a

0 1
  C      173.142      29.237      44.365
  O      174.469      29.132      43.893
  H      173.091      28.812      45.371
  H      172.465      28.677      43.713
  H      172.835      30.285      44.408
  P      174.768      29.740      42.439
  C      173.299      27.902      41.333
  O      174.572      28.534      41.399
  C      173.242      26.982      40.116
  O      171.972      26.291      40.093
  C      173.339      27.707      38.778
  O      174.674      28.051      38.456
  C      172.733      26.672      37.838
  O      173.701      25.692      37.440
  C      171.655      26.018      38.711
  N      168.029      26.140      35.133
  C      169.224      25.514      35.186
  N      170.128      25.517      36.190
  C      169.684      26.258      37.221
  C      168.495      26.959      37.306
  C      167.637      26.880      36.196
  N      166.437      27.547      36.128
  N      168.418      27.639      38.506
  C      169.538      27.345      39.136
  N      170.328      26.511      38.399
  O      176.354      29.964      42.465
  O      174.031      30.994      42.109
  H      174.536      26.174      37.283
  H      176.550      30.883      42.723
  H      169.491      24.936      34.305
  H      169.820      27.717      40.114
  H      171.632      24.928      38.594
  H      172.351      27.138      36.929
  H      172.699      28.598      38.783
  H      174.036      26.230      40.210
  H      172.520      28.666      41.242
  H      173.137      27.334      42.255
  H      165.884      27.463      35.290
  H      166.186      28.185      36.870
  P      174.994      29.560      38.032
  C      175.103      28.876      35.526
  O      175.746      29.518      36.614
  O      176.142      29.994      39.058
  O      173.823      30.483      38.080
  H      175.767      30.530      39.782
  H      175.727      28.933      34.659
  H      174.170      29.361      35.326
  H      174.926      27.850      35.772

 6  7  8  9  10  11  12  13  14  15  25  28  32  33  34  35 0
 6-311+G(2d,p)
 ****
 36  37  40 0
 6-311+G(2d,p)
 ****
 1  2  3  4  5  16  17  18  19  20  21  22  23  24 0
 3-21G
 ****
 26  27  29  30  31  38  39 41  42  43  44  45  46  47  48 0
 3-21G
 ****


