%nproc=1
%NoSave
%Mem=1900MB
#P OB98/GEN NMR

erre ene a

0 1
  C      158.264    -154.930    -237.231
  O      157.694    -153.842    -237.952
  P      156.659    -154.183    -239.131
  C      155.504    -151.860    -239.005
  O      155.368    -153.271    -238.859
  C      154.229    -151.148    -238.562
  O      154.040    -151.293    -237.135
  C      154.206    -149.647    -238.829
  O      153.843    -149.346    -240.174
  C      153.119    -149.197    -237.880
  O      151.820    -149.469    -238.445
  C      153.359    -150.098    -236.656
  N      153.343    -148.129    -231.928
  C      152.354    -148.623    -232.701
  N      152.428    -149.125    -233.952
  C      153.694    -149.037    -234.415
  C      154.808    -148.514    -233.759
  C      154.599    -148.060    -232.443
  N      155.608    -147.570    -231.646
  N      155.933    -148.599    -234.550
  C      155.511    -149.150    -235.673
  N      154.168    -149.448    -235.635
  O      156.143    -155.662    -238.752
  O      157.226    -154.123    -240.509
  H      151.844    -149.174    -239.376
  H      155.820    -156.114    -239.549
  H      151.363    -148.638    -232.253
  H      156.139    -149.383    -236.522
  H      152.425    -150.422    -236.180
  H      153.150    -148.117    -237.672
  H      155.163    -149.182    -238.552
  H      153.374    -151.636    -239.058
  H      155.694    -151.625    -240.053
  H      155.421    -147.438    -230.661
  H      156.570    -147.715    -231.965
  H      156.360    -151.515    -238.397
  P      154.783    -148.329    -240.969
  C      154.959    -149.423    -243.322
  O      155.564    -149.211    -242.061
  O      155.916    -147.953    -239.895
  O      154.079    -147.119    -241.496
  H      156.296    -147.074    -240.084
  H      155.726    -149.771    -244.026
  H      154.529    -148.503    -243.706
  H      154.188    -150.195    -243.252
  H      158.929    -154.553    -236.482
  H      158.806    -155.560    -237.905
  H      157.485    -155.495    -236.764

 3  4  5  6  7  8  9  10  11  12  22  25  29  30  31  32 0
 6-311+G(2d,p)
 ****
 33  36  37 0
 6-311+G(2d,p)
 ****
 1  2  13  14  15  16  17  18  19  20  21  23  24  26 0
 3-21G
 ****
 27  28  34  35  38  39  40  41  42  43  44  45  46  47  48 0
 3-21G
 ****


