%nproc=1
%NoSave
%Mem=1900MB
#P OB98/GEN NMR

erre ene a

0 1
  C      919.891    -170.403      99.238
  O      918.810    -170.074     100.094
  P      918.704    -168.602     100.720
  C      916.391    -167.983      99.706
  O      917.145    -168.263     100.865
  C      914.891    -167.828     100.044
  O      914.320    -169.152     100.111
  C      914.608    -167.184     101.395
  O      913.250    -166.726     101.400
  C      914.750    -168.359     102.346
  O      914.100    -168.135     103.587
  C      914.186    -169.540     101.502
  N      914.924    -170.785     101.763
  C      914.183    -171.964     101.755
  O      912.986    -172.006     101.475
  N      914.846    -173.091     102.164
  C      916.136    -173.125     102.611
  O      916.606    -174.058     103.259
  C      916.936    -171.914     102.373
  C      916.291    -170.802     101.988
  O      919.189    -167.663      99.505
  O      919.518    -168.380     101.944
  H      913.191    -167.822     103.386
  H      920.130    -167.447      99.610
  H      914.273    -173.913     102.302
  H      917.995    -171.947     102.569
  H      916.837    -169.877     101.852
  H      913.121    -169.714     101.717
  H      915.818    -168.523     102.544
  H      915.284    -166.364     101.659
  H      914.395    -167.282      99.237
  H      916.537    -168.776      98.969
  H      916.742    -167.055      99.242
  P      912.928    -165.339     102.140
  C      912.033    -164.109     100.079
  O      911.719    -164.673     101.335
  O      914.101    -164.455     102.399
  O      912.228    -165.812     103.504
  H      912.255    -165.088     104.149
  H      911.143    -164.164      99.434
  H      912.854    -164.636      99.594
  H      912.304    -163.061     100.211
  H      919.797    -171.420      98.919
  H      920.814    -170.279      99.765
  H      919.878    -169.759      98.384

 3  4  5  6  7  8  9  10  11  12  13  23  28  29  30  31  32 0
 6-311+G(2d,p)
 ****
 33  34 0
 6-311+G(2d,p)
 ****
 1  2  14  15  16  17  18  19  20  21  22  24  25  26  27 0
 3-21G
 ****
 35  36  37  38  39  40  41  42  43  44  45 0
 3-21G
 ****


