%nproc=1
%NoSave
%Mem=1900MB
#P OB98/GEN NMR

erre ene a

0 1
  C       25.446     311.605     -12.225
  O       25.076     311.148     -10.935
  P       24.950     309.562     -10.715
  C       22.425     309.734     -11.322
  O       23.670     309.090     -11.559
  C       21.682     309.951     -12.637
  O       22.528     310.613     -13.600
  C       21.234     308.664     -13.320
  O       20.033     308.150     -12.767
  C       20.999     309.152     -14.740
  O       19.720     309.805     -14.832
  C       22.135     310.168     -14.923
  N       23.661     307.681     -19.060
  C       22.437     308.260     -18.774
  N       21.468     308.102     -19.701
  N       22.186     308.937     -17.685
  C       23.249     309.008     -16.843
  C       24.511     308.479     -17.017
  C       24.769     307.721     -18.225
  O       25.813     307.142     -18.509
  N       25.325     308.765     -15.951
  C       24.561     309.468     -15.136
  N       23.282     309.605     -15.612
  O       24.455     309.438      -9.197
  O       26.209     308.796     -10.964
  H       19.080     309.235     -14.366
  H       24.606     308.529      -8.870
  H       23.799     307.165     -19.911
  H       24.886     309.881     -14.188
  H       21.806     311.052     -15.477
  H       20.997     308.341     -15.473
  H       21.575     307.538     -20.532
  H       22.034     307.911     -13.318
  H       20.544     308.460     -19.491
  H       20.820     310.602     -12.438
  H       22.607     310.698     -10.842
  H       21.822     309.118     -10.644
  P       20.141     306.772     -11.947
  C       19.232     305.488     -14.015
  O       20.269     305.626     -13.061
  O       18.666     306.581     -11.360
  O       21.182     306.770     -10.880
  H       18.690     306.049     -10.548
  H       19.594     304.856     -14.837
  H       18.932     306.455     -14.420
  H       18.366     304.997     -13.553
  H       25.491     312.674     -12.225
  H       24.721     311.278     -12.941
  H       26.406     311.208     -12.482

 3  4  5  6  7  8  9  10  11  12  23  26  30  31 0
 6-311+G(2d,p)
 ****
 33  35  36  37  38 0
 6-311+G(2d,p)
 ****
 1  2  13  14  15  16  17  18  19  20  21  22  24  25 0
 3-21G
 ****
 27  28  29  32  34  39  40  41  42  43  44  45  46  47  48  49 0
 3-21G
 ****


