%nproc=1
%NoSave
%Mem=1900MB
#P OB98/GEN NMR

erre ene a

0 1
  C      202.038    -552.941    -176.738
  O      200.794    -552.542    -177.314
  P      199.426    -552.653    -176.478
  C      198.518    -550.324    -177.079
  O      198.308    -551.729    -177.178
  C      197.408    -549.491    -177.697
  O      197.492    -549.499    -179.150
  C      195.981    -549.927    -177.332
  O      195.202    -548.730    -177.293
  C      195.593    -550.791    -178.514
  O      194.190    -550.975    -178.632
  C      196.250    -550.019    -179.672
  N      196.457    -550.860    -180.848
  C      195.316    -551.287    -181.529
  O      194.190    -551.005    -181.098
  N      195.457    -552.055    -182.663
  C      196.645    -552.461    -183.017
  N      196.737    -553.241    -184.116
  C      197.881    -552.096    -182.276
  C      197.707    -551.285    -181.224
  O      199.578    -552.436    -175.009
  O      198.910    -554.141    -176.784
  H      193.756    -550.100    -178.592
  H      198.411    -554.474    -176.007
  H      198.844    -552.480    -182.588
  H      198.542    -550.968    -180.614
  H      195.628    -549.149    -179.965
  H      196.057    -551.786    -178.419
  H      195.928    -550.469    -176.387
  H      197.566    -548.447    -177.388
  H      195.862    -553.492    -184.586
  H      199.476    -550.090    -177.572
  H      197.590    -553.689    -184.415
  H      198.638    -550.058    -176.022
  P      194.105    -548.466    -176.152
  C      194.736    -546.019    -175.737
  O      193.746    -546.902    -176.197
  O      194.467    -548.968    -174.802
  O      192.775    -549.181    -176.695
  H      192.149    -549.299    -175.958
  H      194.489    -544.995    -176.010
  H      195.725    -546.267    -176.170
  H      194.807    -546.090    -174.637
  H      202.824    -552.791    -177.448
  H      201.991    -553.976    -176.470
  H      202.231    -552.355    -175.864

 3  4  5  6  7  8  9  10  11  12  13  23  27  28  29  30  32 0
 6-311+G(2d,p)
 ****
 34  35 0
 6-311+G(2d,p)
 ****
 1  2  14  15  16  17  18  19  20  21  22  24  25  26 0
 3-21G
 ****
 31  33  36  37  38  39  40  41  42  43  44  45  46 0
 3-21G
 ****


