%nproc=1
%NoSave
%Mem=1900MB
#P OB98/GEN NMR

erre ene a

0 1
  C     -113.509    -154.366     100.527
  O     -112.290    -154.938     100.960
  H     -113.416    -154.094      99.473
  H     -113.729    -153.464     101.106
  H     -114.324    -155.089     100.634
  P     -112.232    -155.432     102.487
  C     -111.893    -157.986     102.215
  O     -111.279    -156.723     102.450
  C     -110.909    -158.943     101.541
  O     -110.598    -158.495     100.210
  C     -109.567    -159.068     102.261
  O     -109.665    -159.968     103.359
  C     -108.701    -159.639     101.146
  O     -108.938    -161.052     101.018
  C     -109.235    -158.901      99.901
  N     -105.437    -157.137      96.923
  C     -105.837    -158.392      97.217
  N     -106.829    -158.786      98.050
  C     -107.431    -157.726      98.610
  C     -107.129    -156.386      98.409
  C     -106.088    -156.101      97.512
  N     -105.684    -154.814      97.209
  N     -107.960    -155.579      99.159
  C     -108.783    -156.416      99.760
  N     -108.481    -157.729      99.489
  O     -113.550    -155.599     103.164
  O     -111.272    -154.317     103.131
  H     -108.172    -161.440     100.553
  H     -110.558    -154.081     102.511
  H     -105.297    -159.187      96.714
  H     -109.621    -156.124     100.387
  H     -109.280    -159.562      99.027
  H     -107.635    -159.508     101.343
  H     -109.177    -158.091     102.557
  H     -111.400    -159.920     101.451
  H     -112.782    -157.865     101.585
  H     -104.826    -154.706      96.693
  H     -106.084    -154.055      97.740
  H     -112.202    -158.387     103.185
  P     -108.859    -159.690     104.716
  C     -110.315    -161.505     105.818
  O     -108.990    -161.018     105.610
  O     -109.229    -158.426     105.425
  O     -107.321    -159.699     104.280
  H     -106.823    -159.016     104.774
  H     -110.280    -162.387     106.423
  H     -110.762    -161.738     104.874
  H     -110.897    -160.756     106.313

 6  7  8  9  10  11  12  13  14  15  25  28  32  33  34  35 0
 6-311+G(2d,p)
 ****
 36  39  40 0
 6-311+G(2d,p)
 ****
 1  2  3  4  5  16  17  18  19  20  21  22  23  24 0
 3-21G
 ****
 26  27  29  30  31  37  38  41  42  43  44  45  46  47 0
 3-21G
 ****
 48 0
 3-21G
 ****


