%nproc=1
%NoSave
%Mem=1900MB
#P OB98/GEN NMR

erre ene a

0 1
  C       73.184    -760.659    -781.723
  O       74.009    -761.694    -782.211
  H       73.672    -760.145    -780.887
  H       73.005    -759.940    -782.525
  H       72.221    -761.074    -781.400
  P       74.473    -762.796    -781.152
  C       72.204    -764.062    -781.236
  O       73.607    -764.127    -781.458
  C       71.549    -765.382    -781.635
  O       71.432    -765.469    -783.071
  C       72.317    -766.632    -781.218
  O       72.126    -766.948    -779.850
  C       71.674    -767.669    -782.125
  O       70.421    -768.095    -781.573
  C       71.430    -766.871    -783.433
  N       73.221    -770.184    -786.906
  C       72.185    -770.270    -786.036
  N       71.781    -769.356    -785.141
  C       72.542    -768.232    -785.195
  C       73.627    -768.029    -786.027
  C       73.982    -769.062    -786.910
  N       75.040    -768.980    -787.787
  N       74.160    -766.769    -785.810
  C       73.427    -766.247    -784.855
  N       72.437    -767.105    -784.443
  O       73.856    -762.271    -779.761
  O       75.949    -763.003    -781.032
  H       69.904    -768.481    -782.302
  H       74.477    -762.477    -779.038
  H       71.598    -771.180    -786.085
  H       73.552    -765.248    -784.446
  H       70.438    -767.099    -783.854
  H       72.291    -768.556    -782.262
  H       73.383    -766.532    -781.461
  H       70.532    -765.383    -781.205
  H       71.773    -763.252    -781.839
  H       75.113    -769.651    -788.529
  H       75.585    -768.124    -787.782
  H       72.016    -763.846    -780.180
  P       73.077    -768.060    -779.191
  C       74.682    -766.377    -778.011
  O       73.689    -767.396    -777.861
  O       74.330    -768.078    -780.189
  O       72.463    -769.400    -779.039
  H       74.781    -768.955    -780.159
  H       74.991    -766.035    -777.045
  H       74.272    -765.559    -778.565
  H       75.526    -766.776    -778.535

 6  7  8  9  10  11  12  13  14  15  25  28  32  33  34  35 0
 6-311+G(2d,p)
 ****
 36  39  40 0
 6-311+G(2d,p)
 ****
 1  2  3  4  5  16  17  18  19  20  21  22  23  24 0
 3-21G
 ****
 26  27  29  30  31  37  38  41  42  43  44  45  46  47  48 0
 3-21G
 ****


