%nproc=1
%NoSave
%Mem=1900MB
#P OB98/GEN NMR

erre ene a

0 1
  C       96.102     625.456     193.390
  O       96.806     624.587     192.518
  P       96.035     623.438     191.717
  C       96.542     621.916     193.731
  O       95.547     622.372     192.816
  C       96.551     620.393     193.790
  O       95.277     619.879     194.251
  C       96.760     619.724     192.432
  O       98.020     619.906     191.808
  C       96.341     618.296     192.746
  O       97.388     617.567     193.378
  C       95.166     618.525     193.726
  N       93.860     618.295     193.098
  C       93.262     617.065     193.372
  O       93.776     616.209     194.095
  N       92.067     616.839     192.759
  C       91.445     617.681     191.879
  O       90.397     617.389     191.319
  C       92.133     618.952     191.603
  C       93.292     619.197     192.220
  O       96.779     622.854     190.567
  O       94.641     624.142     191.307
  H       96.992     616.756     193.762
  H       94.113     624.455     192.058
  H       91.612     615.953     192.924
  H       91.651     619.646     190.924
  H       93.819     620.127     192.039
  H       95.247     617.856     194.591
  H       96.069     617.747     191.834
  H       96.018     620.128     191.733
  H       97.312     620.077     194.519
  H       96.318     622.306     194.728
  H       97.521     622.305     193.436
  P       98.192     620.025     190.214
  C       98.664     617.547     189.620
  O       97.757     618.632     189.554
  O       99.452     620.658     189.737
  O       96.949     620.972     189.826
  H       97.187     621.511     189.049
  H       98.228     616.706     189.084
  H       98.835     617.255     190.656
  H       99.613     617.808     189.141
  H       96.786     626.151     193.830
  H       95.631     624.883     194.161
  H       95.357     625.990     192.837

 3  4  5  6  7  8  9  10  11  12  13  23  28  29  30  31  32 0
 6-311+G(2d,p)
 ****
 33  34 0
 6-311+G(2d,p)
 ****
 1  2  14  15  16  17  18  19  20  21  22  24  25  26  27 0
 3-21G
 ****
 35  36  37  38  39  40  41  42  43  44  45 0
 3-21G
 ****


