%nproc=1
%NoSave
%Mem=1900MB
#P OB98/GEN NMR

erre ene a

0 1
  C      117.985     698.678     831.005
  O      116.576     698.780     831.040
  H      118.289     698.433     829.985
  H      118.318     697.879     831.672
  H      118.450     699.623     831.299
  P      115.868     699.289     832.386
  C      113.754     700.670     832.914
  O      114.754     700.356     831.947
  C      112.923     701.868     832.434
  O      113.732     703.070     832.490
  C      112.462     701.749     830.996
  O      111.369     700.840     830.875
  C      112.119     703.206     830.693
  O      110.816     703.548     831.187
  C      113.226     703.953     831.465
  N      114.295     704.421     830.581
  C      114.210     705.728     830.150
  O      113.307     706.501     830.465
  N      115.179     706.130     829.252
  C      116.104     705.315     828.676
  O      116.785     705.648     827.719
  C      116.195     703.950     829.220
  C      115.286     703.566     830.128
  O      116.790     699.736     833.470
  O      114.987     698.031     832.852
  H      115.449     697.572     833.579
  H      110.734     704.510     831.059
  H      115.099     707.069     828.902
  H      116.968     703.285     828.840
  H      115.309     702.553     830.527
  H      112.799     704.828     831.994
  H      112.131     703.390     829.613
  H      113.289     701.431     830.352
  H      112.078     701.995     833.133
  H      114.252     700.923     833.865
  H      113.123     699.791     833.077
  P      110.599     700.690     829.481
  C      108.911     699.063     828.412
  O      109.825     699.279     829.484
  O      111.444     700.946     828.266
  O      109.397     701.746     829.571
  H      109.397     702.294     828.775
  H      108.459     698.099     828.518
  H      109.436     699.111     827.481
  H      108.152     699.817     828.433

 6  7  8  9  10  11  12  13  14  15  16  27  31  32  33  34  35 0
 6-311+G(2d,p)
 ****
 36  37 0
 6-311+G(2d,p)
 ****
 1  2  3  4  5  17  18  19  20  21  22  23  24  25 0
 3-21G
 ****
 26  28  29  30  38  39  40  41  42  43  44  45 0
 3-21G
 ****


