%nproc=1
%NoSave
%Mem=1900MB
#P OB98/GEN NMR

erre ene a

0 1
  C      301.113     -73.988     -94.089
  O      302.136     -74.494     -93.262
  H      301.564     -73.636     -95.022
  H      300.616     -73.141     -93.610
  H      300.385     -74.767     -94.325
  P      301.763     -75.042     -91.798
  C      300.751     -77.335     -92.356
  O      301.907     -76.644     -91.898
  C      300.515     -78.610     -91.545
  O      299.125     -79.014     -91.668
  C      301.383     -79.797     -91.993
  O      301.970     -80.426     -90.853
  C      300.384     -80.743     -92.640
  O      300.820     -82.101     -92.637
  C      299.127     -80.445     -91.814
  N      297.919     -80.942     -92.458
  C      297.822     -82.329     -92.606
  O      298.728     -83.059     -92.198
  N      296.737     -82.852     -93.259
  C      295.845     -82.056     -93.764
  N      294.809     -82.638     -94.425
  C      295.922     -80.584     -93.655
  C      296.972     -80.100     -92.991
  O      300.459     -74.557     -91.265
  O      303.010     -74.636     -90.880
  H      300.114     -82.656     -93.035
  H      302.718     -74.614     -89.938
  H      295.154     -79.965     -94.097
  H      297.112     -79.032     -92.862
  H      299.200     -80.890     -90.812
  H      300.223     -80.445     -93.684
  H      302.173     -79.513     -92.689
  H      300.677     -78.381     -90.483
  H      294.802     -83.650     -94.482
  H      300.884     -77.575     -93.417
  H      294.071     -82.123     -94.877
  H      299.886     -76.675     -92.241
  P      303.569     -80.326     -90.732
  C      303.862     -78.222     -89.238
  O      303.917     -79.641     -89.323
  O      303.950     -79.209     -91.812
  O      304.268     -81.617     -91.006
  H      304.416     -79.620     -92.565
  H      304.117     -77.914     -88.245
  H      302.872     -77.889     -89.472
  H      304.555     -77.796     -89.933

 6  7  8  9  10  11  12  13  14  15  16  26  30  31  32  33  35 0
 6-311+G(2d,p)
 ****
 37  38 0
 6-311+G(2d,p)
 ****
 1  2  3  4  5  17  18  19  20  21  22  23  24  25 0
 3-21G
 ****
 27  28  29  34  36  39  40  41  42  43  44  45  46 0
 3-21G
 ****


