%nproc=1
%NoSave
%Mem=1900MB
#P OB98/GEN NMR

erre ene a

0 1
  C      804.959    -889.390    -276.713
  O      803.734    -889.150    -277.371
  H      805.715    -889.730    -277.427
  H      805.298    -888.450    -276.253
  H      804.836    -890.130    -275.925
  P      803.074    -890.420    -278.119
  C      801.614    -890.590    -275.975
  O      802.344    -891.290    -276.983
  C      801.364    -891.480    -274.780
  O      800.509    -892.590    -275.222
  C      802.627    -892.110    -274.180
  O      802.642    -891.910    -272.748
  C      802.511    -893.610    -274.444
  O      803.050    -894.400    -273.417
  C      800.992    -893.790    -274.598
  N      801.937    -898.760    -275.157
  C      802.074    -897.940    -274.099
  N      801.733    -896.640    -273.982
  C      801.123    -896.210    -275.105
  C      800.876    -896.940    -276.269
  C      801.326    -898.280    -276.265
  N      801.229    -899.090    -277.368
  N      800.236    -896.160    -277.224
  C      800.154    -894.960    -276.653
  N      800.672    -894.950    -275.386
  O      804.356    -891.300    -278.519
  O      802.253    -890.060    -279.311
  H      802.888    -895.340    -273.648
  H      804.377    -891.400    -279.493
  H      802.548    -898.390    -273.218
  H      799.750    -894.080    -277.135
  H      800.488    -893.880    -273.621
  H      803.035    -893.810    -275.381
  H      803.550    -891.700    -274.618
  H      800.805    -890.930    -274.041
  H      800.649    -890.250    -276.393
  H      801.680    -900.000    -277.338
  H      800.888    -898.710    -278.239
  H      802.201    -889.710    -275.678
  P      803.346    -890.570    -272.226
  C      801.252    -889.210    -271.475
  O      802.313    -889.340    -272.431
  O      804.479    -890.270    -273.315
  O      803.938    -890.680    -270.853
  H      805.355    -890.240    -272.909
  H      800.648    -888.363    -271.726
  H      801.667    -889.075    -270.498
  H      800.650    -890.094    -271.488

 6  7  8  9  10  11  12  13  14  15  25  28  32  33  34  35 0
 6-311+G(2d,p)
 ****
 36  39  40 0
 6-311+G(2d,p)
 ****
 1  2  3  4  5  16  17  18  19  20  21  22  23  24 0
 3-21G
 ****
 26  27  29  30  31  37  38  41  42  43  44  45  46  47  48 0
 3-21G
 ****


