%nproc=1
%NoSave
%Mem=1900MB
#P OB98/GEN NMR

erre ene a

0 1
  C     1087.796    -730.523    1303.740
  O     1086.550    -730.293    1304.384
  H     1088.405    -731.154    1304.367
  H     1088.309    -729.565    1303.584
  H     1087.637    -731.005    1302.771
  P     1085.350    -729.615    1303.580
  C     1083.812    -731.443    1304.562
  O     1084.239    -730.763    1303.380
  C     1082.655    -732.398    1304.228
  O     1081.578    -731.622    1303.573
  C     1083.009    -733.553    1303.274
  O     1082.195    -734.662    1303.627
  C     1082.576    -732.972    1301.933
  O     1082.531    -733.958    1300.943
  C     1081.280    -732.300    1302.330
  N     1080.772    -731.369    1301.339
  C     1079.928    -731.900    1300.331
  O     1079.648    -733.081    1300.243
  N     1079.531    -731.000    1299.395
  C     1079.811    -729.672    1299.338
  O     1079.370    -728.915    1298.471
  C     1080.681    -729.160    1300.405
  C     1081.103    -730.035    1301.349
  O     1085.735    -728.896    1302.323
  O     1084.671    -728.637    1304.645
  H     1085.020    -727.720    1304.506
  H     1082.095    -733.592    1300.125
  H     1078.937    -731.375    1298.664
  H     1080.951    -728.131    1300.402
  H     1081.773    -729.697    1302.159
  H     1080.508    -733.032    1302.577
  H     1083.322    -732.218    1301.583
  H     1084.084    -733.826    1303.331
  H     1082.227    -732.777    1305.178
  H     1083.494    -730.696    1305.289
  H     1084.657    -732.011    1304.961
  P     1082.490    -735.588    1304.929
  C     1080.023    -735.542    1305.701
  O     1081.366    -735.265    1306.058
  O     1083.882    -735.497    1305.427
  O     1082.166    -737.084    1304.477
  H     1082.779    -737.708    1304.899
  H     1079.378    -735.291    1306.517
  H     1079.922    -736.583    1305.473
  H     1079.755    -734.961    1304.843

 6  7  8  9  10  11  12  13  14  15  16  27  31  32  33  34  35 0
 6-311+G(2d,p)
 ****
 36  37 0
 6-311+G(2d,p)
 ****
 1  2  3  4  5  17  18  19  20  21  22  23  24  25 0
 3-21G
 ****
 26  28  29  30  38  39  40  41  42  43  44  45 0
 3-21G
 ****


