%nproc=1
%NoSave
%Mem=1900MB
#P OB98/GEN NMR

erre ene a

0 1
  C     -377.114    -193.046     346.269
  O     -378.305    -193.566     345.720
  P     -378.360    -194.050     344.189
  C     -380.480    -192.631     343.801
  O     -379.134    -192.884     343.400
  C     -380.693    -191.141     344.060
  O     -379.666    -190.623     344.935
  C     -380.645    -190.273     342.809
  O     -381.856    -190.389     342.075
  C     -380.396    -188.903     343.411
  O     -381.616    -188.301     343.866
  C     -379.468    -189.235     344.605
  N     -378.069    -188.935     344.320
  C     -377.618    -187.674     344.720
  O     -378.392    -186.870     345.242
  N     -376.307    -187.330     344.468
  C     -375.531    -188.166     343.855
  N     -374.255    -187.768     343.625
  C     -375.975    -189.498     343.395
  C     -377.245    -189.812     343.653
  O     -378.890    -195.432     343.979
  O     -376.845    -193.871     343.698
  H     -382.070    -188.985     344.410
  H     -376.260    -194.574     344.069
  H     -375.295    -190.158     342.873
  H     -377.655    -190.766     343.344
  H     -379.770    -188.659     345.490
  H     -379.950    -188.207     342.687
  H     -379.791    -190.563     342.188
  H     -381.663    -191.021     344.565
  H     -373.998    -186.836     343.937
  H     -380.680    -193.194     344.718
  H     -373.576    -188.324     343.128
  H     -381.164    -192.990     343.024
  P     -381.864    -191.145     340.669
  C     -380.578    -189.212     339.587
  O     -380.628    -190.612     339.812
  O     -383.179    -191.151     339.954
  O     -381.427    -192.643     341.043
  H     -382.005    -193.270     340.570
  H     -379.559    -188.939     339.305
  H     -380.850    -188.657     340.487
  H     -381.250    -188.949     338.773
  H     -377.279    -192.782     347.293
  H     -376.818    -192.177     345.720
  H     -376.342    -193.785     346.211

 3  4  5  6  7  8  9  10  11  12  13  23  27  28  29  30  32 0
 6-311+G(2d,p)
 ****
 34  35 0
 6-311+G(2d,p)
 ****
 1  2  14  15  16  17  18  19  20  21  22  24  25  26 0
 3-21G
 ****
 31  33  36  37  38  39  40  41  42  43  44  45  46 0
 3-21G
 ****


