%nproc=1
%NoSave
%Mem=1900MB
#P OB98/GEN NMR

erre ene a

0 1
  C       32.227    -228.217     -62.926
  O       31.570    -227.525     -63.967
  P       30.248    -228.131     -64.646
  C       29.693    -230.375     -65.789
  O       30.728    -229.482     -65.371
  C       29.949    -230.867     -67.215
  O       31.231    -231.538     -67.301
  C       28.919    -231.878     -67.713
  O       27.724    -231.223     -68.088
  C       29.676    -232.521     -68.869
  O       29.593    -231.718     -70.061
  C       31.133    -232.539     -68.334
  N       31.533    -233.859     -67.850
  C       31.967    -234.759     -68.825
  O       31.967    -234.437     -70.017
  N       32.342    -236.021     -68.435
  C       32.262    -236.350     -67.177
  N       32.640    -237.624     -66.864
  C       31.779    -235.433     -66.129
  C       31.428    -234.218     -66.530
  O       29.475    -227.185     -65.501
  O       29.409    -228.670     -63.393
  H       28.641    -231.713     -70.320
  H       29.002    -227.934     -62.883
  H       31.724    -235.771     -65.099
  H       31.065    -233.488     -65.825
  H       31.832    -232.230     -69.125
  H       29.289    -233.510     -69.119
  H       28.735    -232.631     -66.941
  H       29.981    -229.996     -67.879
  H       32.939    -238.227     -67.614
  H       28.738    -229.841     -65.756
  H       32.582    -238.004     -65.922
  H       29.634    -231.222     -65.086
  P       26.391    -232.084     -68.348
  C       25.691    -234.092     -69.778
  O       26.717    -233.156     -69.483
  O       25.142    -231.281     -68.548
  O       26.268    -232.981     -67.021
  H       25.345    -232.977     -66.723
  H       25.893    -234.533     -70.762
  H       24.709    -233.597     -69.803
  H       25.680    -234.881     -69.026
  H       33.081    -227.656     -62.608
  H       32.542    -229.177     -63.279
  H       31.556    -228.343     -62.102

 3  4  5  6  7  8  9  10  11  12  13  23  27  28  29  30  32 0
 6-311+G(2d,p)
 ****
 34  35 0
 6-311+G(2d,p)
 ****
 1  2  14  15  16  17  18  19  20  21  22  24  25  26 0
 3-21G
 ****
 31  33  36  37  38  39  40  41  42  43  44  45  46 0
 3-21G
 ****


