%nproc=1
%NoSave
%Mem=1900MB
#P OB98/GEN NMR

erre ene a

0 1
  C      225.845     186.671    1575.435
  O      225.201     186.450    1576.677
  H      226.929     186.712    1575.611
  H      225.525     187.615    1574.999
  H      225.645     185.843    1574.750
  P      223.599     186.451    1576.718
  C      223.625     184.146    1577.887
  O      223.135     184.920    1576.795
  C      222.590     183.100    1578.315
  O      221.394     183.781    1578.774
  C      222.166     182.152    1577.179
  O      221.815     180.889    1577.791
  C      220.912     182.843    1576.658
  O      220.163     181.999    1575.829
  C      220.291     183.319    1577.977
  N      219.277     184.353    1577.776
  C      217.955     183.916    1577.747
  O      217.687     182.712    1577.865
  N      216.960     184.842    1577.536
  C      217.273     186.078    1577.326
  N      216.249     186.949    1577.108
  C      218.661     186.572    1577.291
  C      219.622     185.659    1577.531
  O      222.929     187.254    1575.647
  O      223.248     187.019    1578.173
  H      220.728     181.622    1575.119
  H      222.938     187.943    1578.104
  H      218.880     187.617    1577.080
  H      220.666     185.918    1577.514
  H      219.830     182.476    1578.511
  H      221.205     183.714    1576.033
  H      222.942     181.994    1576.427
  H      222.982     182.534    1579.179
  H      215.302     186.570    1577.134
  H      223.833     184.828    1578.720
  H      216.367     187.928    1576.911
  H      224.566     183.645    1577.604
  P      222.885     179.744    1578.084
  C      222.164     179.194    1580.503
  O      223.191     179.694    1579.659
  O      224.121     179.813    1577.222
  O      222.108     178.364    1577.833
  H      222.757     177.700    1577.516
  H      222.496     179.215    1581.520
  H      221.932     178.187    1580.224
  H      221.290     179.803    1580.400

 6  7  8  9  10  11  12  13  14  15  16  26  30  31  32  33  35 0
 6-311+G(2d,p)
 ****
 37  38 0
 6-311+G(2d,p)
 ****
 1  2  3  4  5  17  18  19  20  21  22  23  24  25 0
 3-21G
 ****
 27  28  29  34  36  39  40  41  42  43  44  45  46 0
 3-21G
 ****


