%nproc=1
%NoSave
%Mem=1900MB
#P OB98/GEN NMR

erre ene a

0 1
  C     -432.983     871.031      59.157
  O     -434.371     871.110      58.870
  H     -432.533     871.996      58.936
  H     -432.519     870.277      58.526
  H     -432.822     870.796      60.216
  P     -435.283     869.860      59.265
  C     -436.553     871.183      61.114
  O     -436.646     870.459      59.888
  C     -437.597     872.300      61.137
  O     -437.106     873.430      60.373
  C     -438.955     871.897      60.561
  O     -440.004     872.505      61.331
  C     -438.935     872.516      59.152
  O     -440.252     872.757      58.644
  C     -438.089     873.784      59.381
  N     -437.474     874.239      58.142
  C     -438.055     875.380      57.547
  O     -439.031     875.934      58.069
  N     -437.546     875.838      56.355
  C     -436.610     875.156      55.757
  N     -436.168     875.651      54.557
  C     -436.024     873.923      56.310
  C     -436.498     873.531      57.505
  O     -434.535     869.246      60.534
  O     -435.491     868.852      58.181
  H     -440.765     873.219      59.341
  H     -434.648     868.275      60.590
  H     -435.262     873.384      55.764
  H     -436.129     872.625      57.983
  H     -438.718     874.582      59.795
  H     -438.428     871.839      58.466
  H     -439.106     870.810      60.512
  H     -437.725     872.643      62.180
  H     -436.615     876.494      54.203
  H     -435.564     871.626      61.185
  H     -435.485     875.190      53.988
  H     -436.719     870.498      61.949
  P     -441.485     871.951      61.089
  C     -441.739     870.709      63.370
  O     -442.183     871.781      62.518
  O     -441.244     870.445      60.591
  O     -442.274     872.754      60.095
  H     -441.458     870.378      59.636
  H     -442.296     870.725      64.283
  H     -440.698     870.832      63.585
  H     -441.893     869.773      62.875

 6  7  8  9  10  11  12  13  14  15  16  26  30  31  32  33  35 0
 6-311+G(2d,p)
 ****
 37  38 0
 6-311+G(2d,p)
 ****
 1  2  3  4  5  17  18  19  20  21  22  23  24  25 0
 3-21G
 ****
 27  28  29  34  36  39  40  41  42  43  44  45  46 0
 3-21G
 ****


