%nproc=1
%NoSave
%Mem=1900MB
#P OB98/GEN NMR

erre ene a

0 1
  C      -35.876    -184.708      91.171
  O      -36.869    -184.454      92.146
  P      -38.388    -184.817      91.746
  C      -40.101    -183.802      90.058
  O      -38.881    -183.650      90.759
  C      -40.886    -182.491      90.100
  O      -40.182    -181.457      89.385
  C      -42.274    -182.567      89.479
  O      -43.204    -183.120      90.400
  C      -42.540    -181.105      89.143
  O      -42.987    -180.381      90.312
  C      -41.153    -180.620      88.699
  N      -41.576    -178.069      84.355
  C      -42.055    -177.762      85.613
  N      -42.695    -176.580      85.740
  N      -41.907    -178.536      86.658
  C      -41.260    -179.693      86.376
  C      -40.755    -180.114      85.167
  C      -40.877    -179.225      84.038
  O      -40.390    -179.406      82.920
  N      -40.179    -181.358      85.269
  C      -40.304    -181.665      86.545
  N      -40.933    -180.679      87.264
  O      -39.192    -184.544      93.101
  O      -38.592    -186.202      91.217
  H      -43.756    -180.833      90.695
  H      -39.348    -185.382      93.582
  H      -41.706    -177.427      83.590
  H      -39.944    -182.574      86.995
  H      -40.958    -179.580      89.008
  H      -43.323    -180.987      88.387
  H      -42.871    -175.941      84.983
  H      -42.249    -183.154      88.552
  H      -43.056    -176.336      86.662
  H      -40.953    -182.170      91.152
  H      -40.698    -184.591      90.528
  H      -39.891    -184.092      89.021
  P      -44.187    -184.261      89.853
  C      -46.005    -184.424      88.002
  O      -44.999    -183.637      88.618
  O      -45.291    -184.378      91.019
  O      -43.537    -185.578      89.595
  H      -45.570    -185.311      91.110
  H      -46.774    -183.753      87.600
  H      -46.471    -185.115      88.710
  H      -45.558    -184.995      87.188
  H      -34.918    -184.426      91.556
  H      -36.088    -184.139      90.290
  H      -35.871    -185.750      90.930

 3  4  5  6  7  8  9  10  11  12  23  26  30  31 0
 6-311+G(2d,p)
 ****
 33  35  36  37  38 0
 6-311+G(2d,p)
 ****
 1  2  13  14  15  16  17  18  19  20  21  22  24  25 0
 3-21G
 ****
 27  28  29  32  34  39  40  41  42  43  44  45  46  47  48  49 0
 3-21G
 ****


