%nproc=1
%NoSave
%Mem=1900MB
#P OB98/GEN NMR

erre ene a

0 1
  C     -279.235     -57.468     -77.946
  O     -279.748     -56.179     -77.671
  H     -278.169     -57.406     -78.181
  H     -279.366     -58.094     -77.062
  H     -279.776     -57.920     -78.783
  P     -279.677     -55.109     -78.864
  C     -277.426     -54.142     -78.010
  O     -278.789     -53.888     -78.318
  C     -276.882     -53.047     -77.100
  O     -275.493     -53.292     -76.804
  C     -276.935     -51.640     -77.689
  O     -278.230     -51.069     -77.577
  C     -275.933     -50.921     -76.800
  O     -276.547     -50.590     -75.540
  C     -274.856     -52.001     -76.592
  N     -270.531     -49.452     -77.586
  C     -271.398     -49.392     -76.550
  N     -272.517     -50.117     -76.346
  C     -272.699     -50.995     -77.344
  C     -271.892     -51.193     -78.453
  C     -270.762     -50.366     -78.562
  N     -269.919     -50.392     -79.662
  N     -272.413     -52.179     -79.271
  C     -273.524     -52.555     -78.671
  N     -273.734     -51.876     -77.502
  O     -281.167     -54.511     -78.894
  O     -279.277     -55.660     -80.190
  H     -276.947     -51.410     -75.200
  H     -281.679     -54.970     -79.585
  H     -271.165     -48.656     -75.785
  H     -274.205     -53.306     -79.049
  H     -274.460     -51.999     -75.569
  H     -275.562     -49.989     -77.235
  H     -276.572     -51.623     -78.724
  H     -277.432     -53.091     -76.150
  H     -276.840     -54.165     -78.936
  H     -269.470     -49.500     -79.850
  H     -270.288     -50.893     -80.463
  H     -277.352     -55.115     -77.517
  P     -278.843     -50.351     -78.875
  C     -277.589     -48.094     -78.714
  O     -278.828     -48.774     -78.572
  O     -280.395     -50.740     -78.798
  O     -278.243     -50.767     -80.175
  H     -280.664     -51.181     -79.627
  H     -277.722     -47.058     -78.483
  H     -277.241     -48.193     -79.721
  H     -276.870     -48.519     -78.045

 6  7  8  9  10  11  12  13  14  15  25  28  32  33  34  35 0
 6-311+G(2d,p)
 ****
 36  39  40 0
 6-311+G(2d,p)
 ****
 1  2  3  4  5  16  17  18  19  20  21  22  23  24 0
 3-21G
 ****
 26  27  29  30  31  37  38  41  42  43  44  45  46  47  48 0
 3-21G
 ****


