%nproc=1
%NoSave
%Mem=1900MB
#P OB98/GEN NMR

erre ene a

0 1
  C     -837.178     547.620    -739.372
  O     -837.413     547.432    -737.996
  H     -837.701     546.840    -739.936
  H     -836.100     547.542    -739.581
  H     -837.544     548.600    -739.698
  P     -836.868     548.551    -736.988
  C     -835.195     547.105    -735.615
  O     -836.438     547.785    -735.640
  C     -835.182     546.051    -734.506
  O     -835.293     546.718    -733.215
  C     -836.328     545.038    -734.606
  O     -835.828     543.738    -734.232
  C     -837.324     545.518    -733.567
  O     -838.163     544.461    -733.090
  C     -836.396     546.139    -732.508
  N     -837.105     547.128    -731.700
  C     -837.658     546.670    -730.504
  O     -837.556     545.486    -730.167
  N     -838.374     547.542    -729.722
  C     -838.597     548.758    -730.156
  N     -839.337     549.567    -729.352
  C     -838.090     549.256    -731.447
  C     -837.348     548.408    -732.161
  O     -838.199     549.343    -736.549
  O     -835.818     549.453    -737.545
  H     -837.590     543.700    -732.866
  H     -837.998     550.279    -736.375
  H     -838.318     550.275    -731.763
  H     -836.952     548.681    -733.123
  H     -836.007     545.362    -731.848
  H     -837.970     546.285    -734.021
  H     -836.757     544.966    -735.610
  H     -834.206     545.543    -734.514
  H     -839.678     549.189    -728.480
  H     -834.398     547.832    -735.422
  H     -839.593     550.506    -729.605
  H     -835.021     546.641    -736.591
  P     -835.206     542.843    -735.387
  C     -837.553     541.890    -735.970
  O     -836.198     541.599    -735.649
  O     -833.925     542.164    -734.708
  O     -834.820     543.622    -736.615
  H     -833.103     542.567    -735.052
  H     -838.089     540.976    -736.116
  H     -837.590     542.472    -736.867
  H     -837.999     542.441    -735.168

 6  7  8  9  10  11  12  13  14  15  16  26  30  31  32  33  35 0
 6-311+G(2d,p)
 ****
 37  38 0
 6-311+G(2d,p)
 ****
 1  2  3  4  5  17  18  19  20  21  22  23  24  25 0
 3-21G
 ****
 27  28  29  34  36  39  40  41  42  43  44  45  46 0
 3-21G
 ****


