%nproc=1
%NoSave
%Mem=1900MB
#P OB98/GEN NMR

erre ene a

0 1
  C      658.941    -621.616    -130.710
  O      659.306    -621.970    -129.387
  P      658.214    -622.075    -128.231
  C      659.523    -623.958    -126.948
  O      658.908    -622.688    -126.931
  C      659.666    -624.461    -125.501
  O      658.377    -624.540    -124.869
  C      660.299    -625.846    -125.456
  O      661.704    -625.743    -125.253
  C      659.578    -626.500    -124.294
  O      660.156    -626.092    -123.038
  C      658.150    -625.904    -124.445
  N      657.232    -626.545    -125.406
  C      656.777    -627.837    -125.172
  O      657.067    -628.492    -124.174
  N      655.974    -628.368    -126.149
  C      655.561    -627.731    -127.291
  O      655.052    -628.287    -128.251
  C      655.861    -626.296    -127.338
  C      656.685    -625.776    -126.429
  O      657.264    -623.260    -128.741
  O      657.445    -620.820    -127.959
  H      660.166    -625.122    -123.031
  H      656.463    -622.903    -129.165
  H      655.749    -629.355    -126.050
  H      655.432    -625.709    -128.154
  H      656.945    -624.724    -126.474
  H      657.638    -625.880    -123.480
  H      659.665    -627.585    -124.334
  H      660.075    -626.404    -126.373
  H      660.278    -623.737    -124.941
  H      660.498    -623.896    -127.433
  H      658.913    -624.661    -127.531
  P      662.681    -626.759    -126.022
  C      664.365    -624.851    -125.685
  O      664.170    -626.251    -125.683
  O      662.393    -626.958    -127.477
  O      662.526    -628.124    -125.202
  H      661.893    -628.711    -125.648
  H      665.354    -624.633    -125.267
  H      663.603    -624.354    -125.086
  H      664.335    -624.477    -126.713
  H      659.814    -621.601    -131.329
  H      658.489    -620.646    -130.708
  H      658.245    -622.333    -131.092

 3  4  5  6  7  8  9  10  11  12  13  23  28  29  30  31  32 0
 6-311+G(2d,p)
 ****
 33  34 0
 6-311+G(2d,p)
 ****
 1  2  14  15  16  17  18  19  20  21  22  24  25  26  27 0
 3-21G
 ****
 35  36  37  38  39  40  41  42  43  44  45 0
 3-21G
 ****


