%nproc=1
%NoSave
%Mem=1900MB
#P OB98/GEN NMR

erre ene a

0 1
  C      234.677     303.656     -37.668
  O      235.749     302.727     -37.489
  P      235.758     301.394     -38.385
  C      233.449     300.379     -37.559
  O      234.854     300.269     -37.691
  C      232.860     299.004     -37.208
  O      232.840     298.166     -38.390
  C      233.654     298.257     -36.144
  O      233.253     298.611     -34.841
  C      233.369     296.809     -36.498
  O      232.062     296.429     -36.035
  C      233.407     296.870     -38.051
  N      234.709     296.726     -38.727
  C      235.307     295.467     -38.846
  O      234.809     294.431     -38.401
  N      236.511     295.431     -39.492
  C      237.087     296.458     -40.189
  O      238.142     296.345     -40.809
  C      236.351     297.725     -40.169
  C      235.222     297.807     -39.434
  O      237.251     300.840     -38.204
  O      235.408     301.606     -39.818
  H      231.976     296.754     -35.119
  H      237.717     300.856     -39.064
  H      236.980     294.535     -39.529
  H      236.758     298.547     -40.728
  H      234.679     298.736     -39.411
  H      232.753     296.098     -38.467
  H      234.075     296.135     -36.012
  H      234.727     298.436     -36.279
  H      231.829     299.148     -36.872
  H      233.003     300.757     -38.483
  H      233.213     301.107     -36.767
  P      234.075     299.718     -34.019
  C      235.155     297.801     -32.686
  O      234.444     299.024     -32.610
  O      233.443     301.063     -33.921
  O      235.486     299.759     -34.759
  H      235.516     300.497     -35.424
  H      235.476     297.516     -31.688
  H      236.029     297.910     -33.330
  H      234.497     297.010     -33.073
  H      234.810     304.486     -37.006
  H      233.747     303.173     -37.452
  H      234.672     304.004     -38.680

 3  4  5  6  7  8  9  10  11  12  13  23  28  29  30  31  32 0
 6-311+G(2d,p)
 ****
 33  34 0
 6-311+G(2d,p)
 ****
 1  2  14  15  16  17  18  19  20  21  22  24  25  26  27 0
 3-21G
 ****
 35  36  37  38  39  40  41  42  43  44  45 0
 3-21G
 ****


