%nproc=1
%NoSave
%Mem=1900MB
#P OB98/GEN NMR

erre ene a

0 1
  C      481.289    -918.157     260.959
  O      482.053    -918.184     262.151
  H      481.748    -918.833     260.228
  H      481.267    -917.154     260.527
  H      480.266    -918.496     261.153
  P      481.668    -917.154     263.320
  C      480.768    -914.726     263.366
  O      481.356    -915.764     262.584
  C      481.549    -913.427     263.188
  O      481.536    -913.023     261.796
  C      480.958    -912.264     263.957
  O      481.264    -912.363     265.336
  C      481.581    -911.082     263.232
  O      482.932    -910.862     263.662
  C      481.549    -911.576     261.765
  N      480.402    -911.067     261.026
  C      480.393    -909.679     260.782
  O      481.324    -908.973     261.185
  N      479.323    -909.134     260.114
  C      478.361    -909.903     259.705
  N      477.318    -909.300     259.060
  C      478.334    -911.357     259.927
  C      479.372    -911.871     260.591
  O      482.623    -917.047     264.471
  O      480.213    -917.644     263.789
  H      482.867    -910.505     264.575
  H      480.292    -918.303     264.495
  H      477.508    -911.955     259.573
  H      479.428    -912.938     260.791
  H      482.470    -911.278     261.238
  H      481.022    -910.166     263.405
  H      479.877    -912.220     263.807
  H      482.594    -913.608     263.470
  H      477.375    -908.286     258.931
  H      480.801    -915.044     264.408
  H      476.562    -909.796     258.615
  H      479.724    -914.583     263.070
  P      480.364    -911.605     266.434
  C      479.475    -909.203     266.691
  O      480.418    -910.062     266.028
  O      480.702    -911.910     267.860
  O      478.868    -912.037     266.039
  H      478.681    -912.972     266.280
  H      479.601    -908.199     266.343
  H      479.642    -909.238     267.747
  H      478.480    -909.532     266.476

 6  7  8  9  10  11  12  13  14  15  16  26  30  31  32  33  35 0
 6-311+G(2d,p)
 ****
 37  38 0
 6-311+G(2d,p)
 ****
 1  2  3  4  5  17  18  19  20  21  22  23  24  25 0
 3-21G
 ****
 27  28  29  34  36  39  40  41  42  43  44  45  46 0
 3-21G
 ****


