%nproc=1
%NoSave
%Mem=1900MB
#P OB98/GEN NMR

erre ene a

0 1
  C      169.947     -29.878     118.144
  O      171.291     -29.589     117.799
  P      171.553     -28.886     116.381
  C      173.557     -27.375     117.068
  O      173.107     -28.503     116.326
  C      174.940     -27.650     117.654
  O      174.824     -28.458     118.847
  C      175.878     -28.421     116.733
  O      176.393     -27.585     115.709
  C      176.913     -28.915     117.738
  O      177.834     -27.858     118.057
  C      176.040     -29.244     118.963
  N      177.847     -33.973     119.742
  C      178.461     -32.770     119.684
  N      177.915     -31.559     119.451
  C      176.590     -31.662     119.270
  C      175.828     -32.817     119.277
  C      176.508     -34.020     119.529
  N      175.878     -35.246     119.581
  N      174.501     -32.534     119.029
  C      174.460     -31.226     118.887
  N      175.693     -30.652     119.040
  O      170.824     -27.472     116.532
  O      171.042     -29.653     115.198
  H      178.171     -27.501     117.210
  H      170.442     -27.182     115.682
  H      179.535     -32.784     119.852
  H      173.564     -30.652     118.682
  H      176.522     -28.971     119.909
  H      177.502     -29.762     117.371
  H      175.355     -29.274     116.286
  H      175.389     -26.687     117.932
  H      172.860     -27.173     117.888
  H      176.460     -36.067     119.618
  H      174.910     -35.295     119.282
  H      173.575     -26.501     116.411
  P      176.888     -28.297     114.360
  C      175.736     -26.387     113.084
  O      176.947     -27.094     113.295
  O      175.577     -29.094     113.911
  O      178.129     -29.107     114.495
  H      174.779     -28.536     113.936
  H      175.926     -25.569     112.384
  H      175.371     -25.967     114.026
  H      174.981     -27.053     112.653
  H      169.918     -30.342     119.108
  H      169.527     -30.540     117.416
  H      169.382     -28.970     118.168

 3  4  5  6  7  8  9  10  11  12  22  25  29  30  31  32 0
 6-311+G(2d,p)
 ****
 33  36  37 0
 6-311+G(2d,p)
 ****
 1  2  13  14  15  16  17  18  19  20  21  23  24  26 0
 3-21G
 ****
 27  28  34  35  38  39  40  41  42  43  44  45  46  47  48 0
 3-21G
 ****


