%nproc=1
%NoSave
%Mem=1900MB
#P OB98/GEN NMR

erre ene a

0 1
  C     -134.892     427.009    -251.325
  O     -134.438     427.826    -250.237
  P     -134.564     427.395    -248.692
  C     -132.121     427.701    -247.913
  O     -133.457     428.176    -247.826
  C     -131.239     428.279    -246.804
  O     -130.794     429.625    -247.164
  C     -131.922     428.379    -245.423
  O     -130.934     428.040    -244.450
  C     -132.293     429.857    -245.360
  O     -132.562     430.317    -244.050
  C     -131.047     430.465    -246.015
  N     -131.162     431.867    -246.412
  C     -131.555     432.790    -245.435
  O     -131.852     432.433    -244.289
  N     -131.632     434.117    -245.779
  C     -131.351     434.496    -246.985
  N     -131.436     435.829    -247.260
  C     -130.954     433.554    -248.050
  C     -130.879     432.272    -247.698
  O     -134.539     425.912    -248.485
  O     -135.956     428.009    -248.189
  H     -136.367     427.394    -247.551
  H     -131.710     430.488    -243.607
  H     -130.722     433.913    -249.045
  H     -130.564     431.519    -248.420
  H     -130.193     430.347    -245.336
  H     -133.186     430.020    -245.965
  H     -132.774     427.699    -245.307
  H     -130.334     427.664    -246.733
  H     -131.696     436.445    -246.496
  H     -131.714     427.996    -248.884
  H     -131.223     436.228    -248.165
  H     -132.132     426.604    -247.861
  P     -131.231     426.883    -243.385
  C     -128.875     425.778    -243.599
  O     -129.823     426.418    -242.761
  O     -131.591     425.647    -244.332
  O     -132.348     427.139    -242.416
  H     -132.168     425.018    -243.845
  H     -127.884     426.201    -243.400
  H     -129.107     425.894    -244.657
  H     -128.856     424.708    -243.352
  H     -134.699     427.509    -252.251
  H     -135.943     426.835    -251.226
  H     -134.372     426.074    -251.310

 3  4  5  6  7  8  9  10  11  12  13  24  27  28  29  30  32 0
 6-311+G(2d,p)
 ****
 34  35 0
 6-311+G(2d,p)
 ****
 1  2  14  15  16  17  18  19  20  21  22  23  25  26 0
 3-21G
 ****
 31  33  36  37  38  39  40  41  42  43  44  45  46 0
 3-21G
 ****


