%nproc=1
%NoSave
%Mem=1900MB
#P OB98/GEN NMR

erre ene a

0 1
  C      103.224     590.930      18.102
  O      101.918     591.427      18.367
  P      100.936     590.649      19.360
  C      100.591     588.049      19.477
  O      100.579     589.239      18.714
  C      100.447     586.848      18.533
  O      101.436     586.920      17.480
  C      100.638     585.527      19.267
  O       99.386     584.989      19.677
  C      101.354     584.671      18.241
  O      100.413     584.114      17.305
  C      102.249     585.712      17.541
  N      103.536     586.070      18.172
  C      104.609     585.177      18.115
  O      104.561     584.101      17.526
  N      105.746     585.570      18.780
  C      105.915     586.748      19.448
  O      106.826     586.983      20.236
  C      104.863     587.754      19.244
  C      103.731     587.368      18.647
  O       99.564     591.478      19.224
  O      101.396     590.556      20.779
  H       99.941     584.870      16.894
  H       99.473     592.103      19.968
  H      106.471     584.859      18.865
  H      105.015     588.748      19.631
  H      102.919     588.074      18.522
  H      102.469     585.421      16.508
  H      101.855     583.826      18.712
  H      101.302     585.666      20.140
  H       99.455     586.881      18.069
  H       99.778     588.065      20.211
  H      101.536     587.974      20.042
  P       99.318     583.987      20.912
  C      100.358     581.688      21.403
  O      100.075     582.654      20.415
  O       97.963     583.763      21.498
  O      100.332     584.629      21.978
  H       99.830     585.155      22.639
  H      100.701     580.774      20.915
  H       99.458     581.464      21.991
  H      101.142     582.054      22.065
  H      103.723     591.585      17.419
  H      103.153     589.953      17.672
  H      103.778     590.879      19.016

 3  4  5  6  7  8  9  10  11  12  13  23  28  29  30  31  32 0
 6-311+G(2d,p)
 ****
 33  34 0
 6-311+G(2d,p)
 ****
 1  2  14  15  16  17  18  19  20  21  22  24  25  26  27 0
 3-21G
 ****
 35  36  37  38  39  40  41  42  43  44  45 0
 3-21G
 ****


