%nproc=1
%NoSave
%Mem=1900MB
#P OB98/GEN NMR

erre ene a

0 1
  C     -973.739    1084.416    -410.512
  O     -973.939    1083.047    -410.154
  P     -975.458    1082.513    -410.256
  C     -974.993    1081.301    -412.503
  O     -975.793    1082.262    -411.811
  C     -975.495    1081.091    -413.929
  O     -976.893    1080.657    -413.936
  C     -975.424    1082.329    -414.813
  O     -975.122    1081.912    -416.150
  C     -976.830    1082.876    -414.766
  O     -977.092    1083.761    -415.843
  C     -977.615    1081.572    -414.804
  N     -982.138    1083.432    -416.103
  C     -980.906    1083.585    -416.697
  N     -980.888    1084.313    -417.848
  N     -979.810    1083.083    -416.221
  C     -979.977    1082.351    -415.100
  C     -981.157    1082.106    -414.413
  C     -982.365    1082.701    -414.941
  O     -983.476    1082.596    -414.434
  N     -980.932    1081.297    -413.321
  C     -979.630    1081.121    -413.318
  N     -978.997    1081.685    -414.409
  O     -976.322    1083.815    -409.891
  O     -975.760    1081.373    -409.333
  H     -978.054    1083.914    -415.897
  H     -976.628    1083.762    -408.964
  H     -982.963    1083.857    -416.495
  H     -979.081    1080.565    -412.579
  H     -977.628    1081.129    -415.822
  H     -977.032    1083.406    -413.836
  H     -981.707    1084.685    -418.290
  H     -974.688    1083.091    -414.478
  H     -980.002    1084.401    -418.339
  H     -974.908    1080.291    -414.385
  H     -975.020    1080.351    -411.955
  H     -973.945    1081.621    -412.473
  P     -973.658    1082.186    -416.713
  C     -972.930    1079.723    -416.301
  O     -972.673    1081.094    -416.048
  O     -973.251    1083.557    -415.974
  O     -973.575    1082.310    -418.194
  H     -972.741    1084.123    -416.606
  H     -972.016    1079.167    -416.199
  H     -973.362    1079.556    -417.288
  H     -973.625    1079.364    -415.528
  H     -972.703    1084.664    -410.409
  H     -974.321    1085.042    -409.868
  H     -974.043    1084.567    -411.527

 3  4  5  6  7  8  9  10  11  12  23  26  30  31 0
 6-311+G(2d,p)
 ****
 33  35  36  37  38 0
 6-311+G(2d,p)
 ****
 1  2  13  14  15  16  17  18  19  20  21  22  24  25 0
 3-21G
 ****
 27  28  29  32  34  39  40  41  42  43  44  45  46  47  48  49 0
 3-21G
 ****


