%nproc=1
%NoSave
%Mem=1900MB
#P OB98/GEN NMR

erre ene a

0 1
  C     -159.551      -2.745       3.580
  O     -159.854      -1.859       2.511
  P     -160.904      -0.680       2.802
  C     -163.350      -0.659       3.668
  O     -162.314      -1.408       3.043
  C     -164.669      -0.852       2.930
  O     -164.597      -0.231       1.633
  C     -165.040      -2.303       2.664
  O     -165.625      -2.919       3.802
  C     -166.057      -2.145       1.543
  O     -167.343      -1.816       2.097
  C     -165.492      -0.953       0.752
  N     -165.818      -3.018      -3.860
  C     -166.807      -2.771      -2.930
  N     -168.069      -3.096      -3.292
  N     -166.583      -2.253      -1.751
  C     -165.282      -1.942      -1.543
  C     -164.211      -2.142      -2.387
  C     -164.466      -2.763      -3.668
  O     -163.620      -3.068      -4.508
  N     -163.045      -1.683      -1.829
  C     -163.413      -1.172      -0.670
  N     -164.757      -1.334      -0.437
  O     -161.085       0.006       1.367
  O     -160.483       0.304       3.839
  H     -167.929      -1.589       1.351
  H     -161.364       0.936       1.478
  H     -166.049      -3.404      -4.760
  H     -162.745      -0.683       0.026
  H     -166.289      -0.257       0.462
  H     -166.188      -3.058       0.953
  H     -168.320      -3.373      -4.228
  H     -164.177      -2.872       2.300
  H     -168.812      -2.886      -2.636
  H     -165.460      -0.350       3.505
  H     -163.086       0.403       3.655
  H     -163.441      -0.984       4.710
  P     -165.203      -4.442       4.092
  C     -165.534      -6.666       2.790
  O     -165.858      -5.292       2.903
  O     -166.082      -4.827       5.374
  O     -163.744      -4.641       4.325
  H     -165.646      -5.539       5.879
  H     -165.422      -7.132       3.772
  H     -164.602      -6.776       2.227
  H     -166.337      -7.174       2.252
  H     -158.843      -3.476       3.248
  H     -160.446      -3.236       3.901
  H     -159.136      -2.191       4.396

 3  4  5  6  7  8  9  10  11  12  23  26  30  31  33  0
 6-311+G(2d,p)
 ****
 35  36  37  38 0
 6-311+G(2d,p)
 ****
 1  2  13  14  15  16  17  18  19  20  21  22  24  25  27  28  29 0
 3-21G
 ****
 32  34  39  40  41  42  43  44  45  46  47  48  49 0
 3-21G
 ****


