%nproc=1
%NoSave
%Mem=1900MB
#P OB98/GEN NMR

erre ene a

0 1
  C       57.325      20.237      95.115
  O       57.478      21.611      95.417
  H       57.882      19.655      95.853
  H       57.724      20.017      94.121
  H       56.272      19.951      95.167
  P       56.787      22.686      94.453
  C       58.994      23.197      93.213
  O       57.663      22.708      93.109
  C       59.740      22.985      91.899
  O       59.777      21.585      91.562
  C       59.117      23.699      90.700
  O       59.504      25.062      90.674
  C       59.719      22.900      89.557
  O       61.089      23.301      89.355
  C       59.672      21.465      90.116
  N       57.814      17.092      88.334
  C       59.118      17.541      88.393
  N       60.058      16.720      87.876
  N       59.469      18.693      88.901
  C       58.418      19.438      89.315
  C       57.082      19.110      89.293
  C       56.713      17.803      88.789
  O       55.570      17.357      88.742
  N       56.300      20.156      89.711
  C       57.167      21.096      90.036
  N       58.468      20.713      89.806
  O       56.547      24.042      95.043
  O       55.426      21.983      93.990
  H       61.076      24.236      89.078
  H       54.688      22.221      94.581
  H       57.603      16.197      87.924
  H       56.909      22.066      90.445
  H       60.519      20.862      89.773
  H       59.196      23.049      88.612
  H       59.837      15.894      87.341
  H       58.029      23.578      90.683
  H       61.013      17.058      87.858
  H       60.780      23.306      92.049
  H       59.484      22.649      94.023
  H       58.991      24.263      93.464
  P       58.488      26.215      90.201
  C       59.648      26.287      87.890
  O       58.436      26.105      88.602
  O       58.798      27.574      90.722
  O       57.047      25.666      90.617
  H       56.812      25.874      91.556
  H       59.464      26.187      86.841
  H       60.358      25.549      88.200
  H       60.037      27.263      88.092

 6  7  8  9  10  11  12  13  14  15  26  29  33  34 0
 6-311+G(2d,p)
 ****
 36  38  39  40  41 0
 6-311+G(2d,p)
 ****
 1  2  3  4  5  16  17  18  19  20  21  22  23  24  25 0
 3-21G
 ****
 27  28  30  31  32  35  37  42  43  44  45  46  47 0
 3-21G
 ****
 48  49 0
 3-21G
 ****


