%nproc=1
%NoSave
%Mem=1900MB
#P OB98/GEN NMR

erre ene a

0 1
  C      -73.851    -435.915     369.046
  O      -75.144    -435.668     369.606
  P      -76.385    -436.435     368.926
  C      -77.147    -438.928     368.895
  O      -76.478    -437.888     369.600
  C      -76.823    -440.293     369.497
  O      -75.415    -440.593     369.367
  C      -77.108    -440.407     370.993
  O      -78.491    -440.626     371.243
  C      -76.289    -441.629     371.357
  O      -77.021    -442.826     371.046
  C      -75.059    -441.495     370.436
  N      -70.001    -441.671     370.792
  C      -70.855    -442.381     369.969
  N      -70.276    -443.239     369.098
  N      -72.159    -442.258     369.993
  C      -72.593    -441.342     370.896
  C      -71.848    -440.579     371.771
  C      -70.406    -440.743     371.749
  O      -69.608    -440.168     372.477
  N      -72.646    -439.752     372.525
  C      -73.870    -439.998     372.088
  N      -73.890    -440.962     371.114
  O      -75.845    -436.747     367.451
  O      -77.647    -435.644     368.905
  H      -77.803    -442.850     371.639
  H      -76.595    -436.815     366.830
  H      -69.006    -441.810     370.731
  H      -74.764    -439.502     372.447
  H      -74.786    -442.456     369.986
  H      -76.050    -441.677     372.428
  H      -69.278    -443.328     368.974
  H      -76.727    -439.527     371.530
  H      -70.891    -443.739     368.460
  H      -77.392    -441.054     368.950
  H      -76.847    -438.911     367.844
  H      -78.227    -438.733     368.921
  P      -79.350    -439.378     371.777
  C      -79.579    -437.273     370.274
  O      -79.894    -438.639     370.463
  O      -78.230    -438.384     372.350
  O      -80.374    -439.733     372.810
  H      -78.603    -437.841     373.071
  H      -78.532    -437.067     370.524
  H      -80.236    -436.657     370.903
  H      -79.743    -437.014     369.226
  H      -73.117    -435.351     369.582
  H      -73.846    -435.621     368.017
  H      -73.624    -436.958     369.120

 3  4  5  6  7  8  9  10  11  12  23  26  30  31  33  0
 6-311+G(2d,p)
 ****
 35  36  37  38 0
 6-311+G(2d,p)
 ****
 1  2  13  14  15  16  17  18  19  20  21  22  24  25  27  28  29 0
 3-21G
 ****
 32  34  39  40  41  42  43  44  45  46  47  48  49 0
 3-21G
 ****


