%nproc=1
%NoSave
%Mem=1900MB
#P OB98/GEN NMR

erre ene a

0 1
  C      317.404     -66.257      58.588
  O      317.607     -65.164      57.684
  P      316.524     -63.994      57.504
  C      315.632     -62.106      59.012
  O      316.765     -62.891      58.643
  C      315.893     -61.306      60.296
  O      316.264     -62.181      61.380
  C      317.012     -60.278      60.184
  O      316.557     -59.115      59.513
  C      317.378     -60.074      61.650
  O      316.456     -59.163      62.277
  C      317.206     -61.486      62.217
  N      320.097     -64.474      65.196
  C      318.878     -63.925      65.381
  N      318.175     -63.134      64.543
  C      318.846     -62.949      63.392
  C      320.100     -63.445      63.061
  C      320.738     -64.241      64.026
  N      321.989     -64.787      63.841
  N      320.477     -63.020      61.805
  C      319.459     -62.296      61.377
  N      318.451     -62.225      62.300
  O      315.113     -64.476      57.406
  O      316.960     -63.239      56.160
  H      315.563     -59.545      62.192
  H      316.177     -62.839      55.739
  H      318.404     -64.147      66.336
  H      319.404     -61.809      60.409
  H      316.770     -61.466      63.225
  H      318.384     -59.662      61.781
  H      317.865     -60.709      59.652
  H      314.950     -60.818      60.581
  H      314.781     -62.780      59.170
  H      322.393     -65.319      64.595
  H      322.493     -64.579      62.992
  H      315.398     -61.424      58.190
  P      317.170     -58.717      58.086
  C      317.236     -59.973      55.851
  O      316.461     -59.643      56.990
  O      318.660     -58.674      58.016
  O      316.533     -57.276      57.792
  H      317.151     -56.758      57.239
  H      317.220     -59.134      55.148
  H      316.793     -60.848      55.366
  H      318.265     -60.205      56.130
  H      318.247     -66.915      58.547
  H      316.520     -66.792      58.308
  H      317.293     -65.881      59.583

 3  4  5  6  7  8  9  10  11  12  22  25  29  30  31  32 0
 6-311+G(2d,p)
 ****
 33  36  37 0
 6-311+G(2d,p)
 ****
 1  2  13  14  15  16  17  18  19  20  21  23  24  26 0
 3-21G
 ****
 27  28  34  35  38  39  40  41  42  43  44  45  46  47  48 0
 3-21G
 ****


