%nproc=1
%NoSave
%Mem=1900MB
#P OB98/GEN NMR

erre ene a

0 1
  C      490.782    -101.929     158.629
  O      489.583    -101.740     157.895
  P      488.627    -100.531     158.345
  C      487.111    -102.128     159.739
  O      487.964    -100.988     159.737
  C      486.509    -102.335     161.125
  O      487.549    -102.495     162.099
  C      485.670    -101.161     161.615
  O      484.398    -101.171     160.993
  C      485.625    -101.426     163.118
  O      484.553    -102.326     163.457
  C      487.003    -102.090     163.377
  N      487.920    -101.213     164.099
  C      488.095    -101.506     165.458
  O      487.480    -102.440     165.976
  N      488.931    -100.702     166.197
  C      489.527     -99.703     165.633
  N      490.354     -98.943     166.412
  C      489.354     -99.351     164.203
  C      488.535    -100.134     163.509
  O      487.405    -100.625     157.311
  O      489.275     -99.183     158.341
  H      484.684    -102.538     164.406
  H      486.984     -99.756     157.187
  H      489.879     -98.505     163.790
  H      488.343     -99.949     162.459
  H      486.876    -103.009     163.965
  H      485.470    -100.508     163.687
  H      486.181    -100.215     161.419
  H      485.907    -103.258     161.105
  H      490.448     -99.208     167.389
  H      487.695    -103.012     159.472
  H      490.881     -98.156     166.059
  H      486.326    -101.988     158.994
  P      483.504     -99.840     161.107
  C      482.137    -100.884     163.009
  O      482.987     -99.815     162.620
  O      482.179    -100.259     160.298
  O      484.105     -98.580     160.584
  H      481.591     -99.486     160.208
  H      481.988    -100.825     164.094
  H      482.599    -101.846     162.763
  H      481.168    -100.782     162.518
  H      491.319    -102.762     158.226
  H      490.546    -102.120     159.655
  H      491.385    -101.048     158.560

 3  4  5  6  7  8  9  10  11  12  13  21  23  27  28  29  30  32 0
 6-311+G(2d,p)
 ****
 34  35 0
 6-311+G(2d,p)
 ****
 1  2  14  15  16  17  18  19  20  22  24  25  26 0
 3-21G
 ****
 31  33  36  37  38  39  40  41  42  43  44  45  46 0
 3-21G
 ****


