%nproc=1
%NoSave
%Mem=1900MB
#P OB98/GEN NMR

erre ene a

0 1
  C      375.543      62.958    -354.071
  O      375.038      61.655    -353.819
  P      373.575      61.516    -353.171
  C      374.572      60.656    -350.926
  O      373.743      61.601    -351.575
  C      374.779      61.040    -349.457
  O      375.454      59.952    -348.762
  C      375.618      62.314    -349.250
  O      375.115      62.987    -348.088
  C      376.999      61.748    -348.956
  O      377.852      62.671    -348.299
  C      376.611      60.523    -348.108
  N      377.693      59.548    -347.985
  C      378.896      59.992    -347.447
  O      379.092      61.147    -347.071
  N      379.911      59.069    -347.406
  C      379.870      57.806    -347.929
  O      380.856      57.071    -347.965
  C      378.576      57.391    -348.489
  C      377.565      58.260    -348.497
  O      373.208      59.981    -353.429
  O      372.549      62.444    -353.738
  H      378.644      62.182    -348.009
  H      372.607      59.904    -354.203
  H      380.786      59.374    -347.012
  H      378.504      56.392    -348.890
  H      376.603      57.990    -348.921
  H      376.289      60.841    -347.115
  H      377.471      61.444    -349.895
  H      375.615      62.985    -350.115
  H      373.784      61.164    -348.988
  H      375.546      60.629    -351.421
  H      374.124      59.658    -351.007
  P      374.638      64.514    -348.248
  C      376.896      65.285    -347.177
  O      375.960      65.417    -348.227
  O      373.974      64.769    -346.807
  O      373.690      64.728    -349.392
  H      374.509      64.408    -346.082
  H      376.962      64.247    -346.820
  H      376.607      65.934    -346.339
  H      377.886      65.594    -347.540
  H      376.520      62.885    -354.500
  H      375.597      63.504    -353.152
  H      374.892      63.467    -354.751

 3  4  5  6  7  8  9  10  11  12  13  23  28  29  30  31  32 0
 6-311+G(2d,p)
 ****
 33  34 0
 6-311+G(2d,p)
 ****
 1  2  14  15  16  17  18  19  20  21  22  24  25  26 0
 3-21G
 ****
 27  35  36  37  38  39  40  41  42  43  44  45 0
 3-21G
 ****


