%nproc=1
%NoSave
%Mem=1900MB
#P OB98/GEN NMR

erre ene a

0 1
  C     -509.648     108.609    -199.145
  O     -509.230     109.524    -198.147
  H     -509.115     107.665    -198.997
  H     -509.407     109.000    -200.140
  H     -510.722     108.428    -199.061
  P     -509.919     110.973    -198.176
  C     -512.028     110.017    -197.022
  O     -511.491     110.663    -198.170
  C     -513.276     110.749    -196.533
  O     -513.879     110.044    -195.433
  C     -513.017     112.162    -196.032
  O     -512.926     113.075    -197.109
  C     -514.269     112.399    -195.198
  O     -515.369     112.751    -196.061
  C     -514.521     111.020    -194.568
  N     -514.489     107.986    -190.426
  C     -515.219     107.949    -191.557
  N     -515.206     108.812    -192.600
  C     -514.324     109.798    -192.385
  C     -513.506     109.967    -191.277
  C     -513.603     108.996    -190.269
  N     -512.848     109.039    -189.110
  N     -512.726     111.099    -191.409
  C     -513.032     111.575    -192.601
  N     -514.017     110.843    -193.219
  O     -509.430     111.901    -199.233
  O     -509.661     111.461    -196.673
  H     -516.116     113.018    -195.488
  H     -509.764     110.721    -196.049
  H     -515.908     107.113    -191.648
  H     -512.554     112.428    -193.069
  H     -515.592     110.778    -194.534
  H     -514.145     113.223    -194.488
  H     -512.140     112.201    -195.373
  H     -514.006     110.755    -197.356
  H     -511.281     109.977    -196.222
  H     -513.102     108.402    -188.368
  H     -512.283     109.849    -188.945
  H     -512.283     108.991    -197.312
  P     -512.343     114.556    -196.886
  C     -510.259     113.915    -198.249
  O     -510.747     114.445    -197.023
  O     -512.813     115.228    -195.643
  O     -512.767     115.358    -198.200
  H     -513.015     116.275    -197.968
  H     -509.190     113.889    -198.226
  H     -510.583     114.534    -199.059
  H     -510.637     112.923    -198.384

 6  7  8  9  10  11  12  13  14  15  25  28  32  33  34  35 0
 6-311+G(2d,p)
 ****
 36  39  40 0
 6-311+G(2d,p)
 ****
 1  2  3  4  5  16  17  18  19  20  21  22  23  24 0
 3-21G
 ****
 26  27  29  30  31  37  38  41  42  43  44  45  46  47 0
 3-21G
 ****
 48 0
 3-21G
 ****


