%nproc=1
%NoSave
%Mem=1900MB
#P OB98/GEN NMR

erre ene a

0 1
  C      246.241     569.781       0.918
  O      247.322     570.103       1.780
  P      247.715     571.651       1.920
  C      250.203     572.071       1.292
  O      249.269     571.672       2.292
  C      251.458     572.651       1.928
  O      251.137     573.872       2.621
  C      252.108     571.750       2.965
  O      252.838     570.717       2.338
  C      252.963     572.743       3.738
  O      254.248     572.910       3.107
  C      252.135     574.041       3.657
  N      251.528     574.398       4.928
  C      252.412     574.878       5.907
  O      253.620     574.953       5.670
  N      251.901     575.215       7.141
  C      250.636     575.083       7.369
  N      250.187     575.436       8.610
  C      249.677     574.563       6.377
  C      250.191     574.239       5.186
  O      246.996     572.093       3.275
  O      247.310     572.505       0.759
  H      254.772     573.463       3.728
  H      246.802     573.044       3.278
  H      248.629     574.473       6.618
  H      249.557     573.853       4.394
  H      252.770     574.881       3.335
  H      253.154     572.406       4.763
  H      251.343     571.323       3.632
  H      252.177     572.898       1.129
  H      250.870     575.782       9.275
  H      249.746     572.827       0.648
  H      249.215     575.392       8.877
  H      250.449     571.199       0.672
  P      252.405     569.204       2.636
  C      254.700     568.636       3.619
  O      253.765     568.369       2.594
  O      251.705     568.775       1.254
  O      251.514     568.970       3.810
  H      251.299     567.893       1.346
  H      255.507     567.899       3.571
  H      254.225     568.572       4.603
  H      255.127     569.636       3.483
  H      246.088     568.722       0.918
  H      246.467     570.108      -0.075
  H      245.353     570.270       1.261

 3  4  5  6  7  8  9  10  11  12  13  21  23  27  28  29  30  32 0
 6-311+G(2d,p)
 ****
 34  35 0
 6-311+G(2d,p)
 ****
 1  2  14  15  16  17  18  19  20  22  24  25  26 0
 3-21G
 ****
 31  33  36  37  38  39  40  41  42  43  44  45  46 0
 3-21G
 ****


