%nproc=1
%NoSave
%Mem=1900MB
#P OB98/GEN NMR

erre ene a

0 1
  C       11.964       1.697       5.665
  O       11.811       1.611       7.069
  P       11.415       0.228       7.766
  C       12.275      -2.184       7.749
  O       12.300      -0.927       7.086
  C       12.073      -3.330       6.759
  O       10.741      -3.232       6.185
  C       13.073      -3.355       5.594
  O       13.299      -4.731       5.274
  C       12.293      -2.693       4.470
  O       12.805      -3.008       3.181
  C       10.897      -3.239       4.750
  N        8.236      -2.389       0.470
  C        9.256      -3.230       0.742
  N        9.929      -3.378       1.900
  C        9.450      -2.547       2.839
  C        8.436      -1.614       2.701
  C        7.799      -1.560       1.448
  N        6.735      -0.734       1.165
  N        8.272      -0.905       3.877
  C        9.168      -1.403       4.703
  N        9.858      -2.441       4.139
  O        9.953      -0.062       7.822
  O       12.038       0.343       9.235
  H       12.617      -3.947       2.996
  H       11.325       0.496       9.886
  H        9.570      -3.871      -0.077
  H        9.358      -1.055       5.708
  H       10.780      -4.271       4.401
  H       12.326      -1.604       4.591
  H       14.017      -2.846       5.807
  H       12.113      -4.274       7.316
  H       11.445      -2.173       8.462
  H        6.270      -0.872       0.281
  H        6.225      -0.308       1.936
  H       13.207      -2.328       8.307
  P       14.585      -5.150       4.414
  C       17.108      -5.205       4.837
  O       15.865      -4.658       5.239
  O       14.553      -4.744       2.978
  O       14.639      -6.744       4.576
  H       15.206      -7.124       3.878
  H       17.222      -6.203       5.268
  H       17.913      -4.564       5.205
  H       17.176      -5.271       3.748
  H       12.228       2.698       5.396
  H       11.043       1.431       5.189
  H       12.736       1.027       5.349

 3  4  5  6  7  8  9  10  11  12  22  25  29  30  31  32 0
 6-311+G(2d,p)
 ****
 33  36  37 0
 6-311+G(2d,p)
 ****
 1  2  13  14  15  16  17  18  19  20  21  23  24  26 0
 3-21G
 ****
 27  28  34  35  38  39  40  41  42  43  44  45  46  47  48 0
 3-21G
 ****


