%nproc=1
%NoSave
%Mem=1900MB
#P OB98/GEN NMR

erre ene a

0 1
  C       37.520      77.938     183.615
  O       36.692      78.421     184.688
  P       35.632      79.612     184.518
  C       33.146      79.924     185.175
  O       34.397      79.326     185.504
  C       32.035      78.861     185.108
  O       32.444      77.771     184.240
  C       31.700      78.181     186.434
  O       30.969      79.029     187.300
  C       30.927      76.962     185.942
  O       29.546      77.268     185.708
  C       31.622      76.631     184.606
  N       32.414      75.413     184.663
  C       31.811      74.306     185.274
  O       30.708      74.412     185.802
  N       32.495      73.108     185.275
  C       33.709      73.054     184.813
  N       34.323      71.842     184.827
  C       34.424      74.231     184.277
  C       33.720      75.364     184.228
  O       35.219      79.867     183.101
  O       36.335      80.904     185.154
  H       35.977      81.707     184.739
  H       29.094      77.236     186.580
  H       35.442      74.149     183.935
  H       34.166      76.269     183.839
  H       30.878      76.546     183.805
  H       30.956      76.138     186.671
  H       32.629      77.858     186.915
  H       31.140      79.330     184.679
  H       33.798      71.051     185.187
  H       33.236      80.405     184.197
  H       35.255      71.685     184.467
  H       32.905      80.690     185.924
  P       31.715      79.521     188.629
  C       31.535      81.992     189.418
  O       30.883      80.748     189.234
  O       33.061      80.205     188.081
  O       32.025      78.435     189.609
  H       33.808      79.993     188.671
  H       30.791      82.790     189.360
  H       32.310      82.162     188.663
  H       31.992      82.010     190.415
  H       38.141      77.144     183.974
  H       38.134      78.735     183.252
  H       36.900      77.576     182.822

 3  4  5  6  7  8  9  10  11  12  13  24  27  28  29  30  32 0
 6-311+G(2d,p)
 ****
 34  35 0
 6-311+G(2d,p)
 ****
 1  2  14  15  16  17  18  19  20  21  22  23  25  26 0
 3-21G
 ****
 31  33  36  37  38  39  40  41  42  43  44  45  46 0
 3-21G
 ****


