%nproc=1
%NoSave
%Mem=1900MB
#P OB98/GEN NMR

erre ene a

0 1
  C      624.471     967.275     279.819
  O      624.580     966.132     280.639
  H      623.513     967.761     280.015
  H      624.506     966.984     278.766
  H      625.277     967.984     280.031
  P      626.004     965.393     280.690
  C      625.870     965.857     283.246
  O      626.683     965.813     282.082
  C      626.659     965.373     284.456
  O      626.719     963.915     284.415
  C      628.108     965.884     284.513
  O      628.454     966.111     285.879
  C      628.910     964.706     283.983
  O      630.271     964.708     284.396
  C      628.107     963.533     284.546
  N      628.370     962.279     283.842
  C      629.607     961.677     284.057
  O      630.451     962.074     284.861
  N      629.860     960.563     283.301
  C      629.031     960.025     282.360
  O      629.327     959.035     281.693
  C      627.749     960.712     282.169
  C      627.483     961.791     282.903
  O      626.860     966.198     279.600
  O      625.976     963.925     280.431
  H      626.761     965.786     278.723
  H      630.594     963.786     284.334
  H      630.752     960.113     283.448
  H      627.076     960.315     281.419
  H      626.552     962.340     282.773
  H      628.310     963.409     285.614
  H      628.886     964.705     282.887
  H      628.281     966.798     283.930
  H      626.116     965.644     285.367
  H      624.999     965.213     283.102
  H      625.530     966.890     283.405
  P      629.435     967.342     286.194
  C      627.886     968.169     288.142
  O      628.519     968.451     286.903
  O      629.696     967.920     284.726
  O      630.663     966.937     286.946
  H      628.918     967.844     284.147
  H      627.322     969.022     288.457
  H      628.628     967.941     288.878
  H      627.230     967.331     288.025

 6  7  8  9  10  11  12  13  14  15  16  27  31  32  33  34  35 0
 6-311+G(2d,p)
 ****
 36  37 0
 6-311+G(2d,p)
 ****
 1  2  3  4  5  17  18  19  20  21  22  23  24  25 0
 3-21G
 ****
 26  28  29  30  38  39  40  41  42  43  44  45 0
 3-21G
 ****


