%nproc=1
%NoSave
%Mem=1900MB
#P OB98/GEN NMR

erre ene a

0 1
  C      161.643      84.682      30.174
  O      160.910      85.365      29.178
  H      162.706      84.738      29.928
  H      161.346      83.629      30.204
  H      161.488      85.140      31.155
  P      159.341      85.609      29.403
  C      158.694      83.364      28.308
  O      158.655      84.163      29.485
  C      158.069      82.000      28.585
  O      158.675      81.399      29.748
  C      156.572      82.051      28.877
  O      155.831      82.241      27.686
  C      156.370      80.699      29.549
  O      156.278      79.652      28.573
  C      157.670      80.571      30.378
  N      157.496      80.937      31.782
  C      156.985      79.953      32.622
  O      156.651      78.836      32.220
  N      156.850      80.298      33.942
  C      157.093      81.532      34.473
  O      156.906      81.806      35.655
  C      157.599      82.545      33.534
  C      157.776      82.206      32.255
  O      158.690      86.560      28.454
  O      159.255      86.134      30.913
  H      156.024      78.841      29.059
  H      159.161      87.105      30.920
  H      156.470      79.599      34.560
  H      157.795      83.535      33.920
  H      158.141      82.941      31.545
  H      158.045      79.540      30.338
  H      155.454      80.659      30.142
  H      156.352      82.843      29.605
  H      158.276      81.349      27.723
  H      159.740      83.231      28.008
  H      158.157      83.884      27.510
  P      154.400      82.954      27.719
  C      153.285      80.647      27.655
  O      153.347      81.900      28.322
  O      153.974      83.591      26.437
  O      154.535      84.042      28.889
  H      154.604      84.937      28.501
  H      152.558      80.024      28.133
  H      154.243      80.173      27.696
  H      153.007      80.800      26.633

 6  7  8  9  10  11  12  13  14  15  16  26  31  32  33  34  35 0
 6-311+G(2d,p)
 ****
 36  37 0
 6-311+G(2d,p)
 ****
 1  2  3  4  5  17  18  19  20  21  22  23  24  25 0
 3-21G
 ****
 27  28  29  30  38  39  40  41  42  43  44  45 0
 3-21G
 ****


