%nproc=1
%NoSave
%Mem=1900MB
#P OB98/GEN NMR

erre ene a

0 1
  C       -4.826    -355.140     297.454
  O       -4.573    -355.727     296.172
  P       -4.906    -354.889     294.848
  C       -6.719    -356.070     293.450
  O       -6.448    -355.107     294.456
  C       -8.219    -356.085     293.082
  O       -8.559    -354.851     292.389
  C       -8.601    -357.265     292.174
  O       -9.738    -357.996     292.660
  C       -8.770    -356.618     290.809
  O       -9.613    -357.369     289.946
  C       -9.227    -355.187     291.152
  N       -8.932    -354.242     290.081
  C       -9.565    -354.466     288.869
  O      -10.279    -355.437     288.643
  N       -9.290    -353.551     287.881
  C       -8.412    -352.515     287.967
  O       -8.173    -351.750     287.037
  C       -7.717    -352.366     289.256
  C       -8.006    -353.226     290.245
  O       -3.941    -355.058     293.722
  O       -4.896    -353.372     295.375
  H       -9.277    -358.310     289.917
  H       -4.491    -352.809     294.678
  H       -9.769    -353.686     286.997
  H       -6.998    -351.578     289.357
  H       -7.503    -353.155     291.195
  H      -10.302    -355.165     291.336
  H       -7.794    -356.565     290.327
  H       -7.801    -358.014     292.122
  H       -8.774    -356.113     294.022
  H       -6.430    -357.070     293.798
  H       -6.098    -355.866     292.566
  P       -9.655    -359.472     293.276
  C      -10.445    -360.892     291.260
  O       -9.362    -360.514     292.091
  O      -10.772    -359.858     294.188
  O       -8.271    -359.435     294.096
  H       -8.377    -359.926     294.941
  H      -10.180    -361.839     290.774
  H      -10.594    -360.128     290.489
  H      -11.368    -361.031     291.830
  H       -4.549    -355.830     298.223
  H       -5.867    -354.908     297.541
  H       -4.251    -354.243     297.555

 3  4  5  6  7  8  9  10  11  12  13  23  28  29  30  31  32 0
 6-311+G(2d,p)
 ****
 33  34 0
 6-311+G(2d,p)
 ****
 1  2  14  15  16  17  18  19  20  21  22  24  25  26  27 0
 3-21G
 ****
 35  36  37  38  39  40  41  42  43  44  45 0
 3-21G
 ****


