%nproc=1
%NoSave
%Mem=1900MB
#P OB98/GEN NMR

erre ene a

0 1
  C     -706.349     511.120     143.791
  O     -707.179     511.232     144.953
  P     -706.443     511.120     146.376
  C     -706.474     508.531     146.655
  O     -705.693     509.699     146.436
  C     -705.569     507.314     146.818
  O     -704.963     506.922     145.555
  C     -704.403     507.553     147.765
  O     -704.841     507.545     149.117
  C     -703.479     506.395     147.389
  O     -703.924     505.167     148.002
  C     -703.680     506.315     145.862
  N     -698.707     506.252     144.668
  C     -699.461     505.445     145.449
  N     -700.777     505.532     145.719
  C     -701.332     506.575     145.074
  C     -700.691     507.486     144.240
  C     -699.315     507.296     144.048
  N     -698.541     508.133     143.267
  N     -701.580     508.415     143.767
  C     -702.734     508.102     144.322
  N     -702.641     506.988     145.109
  O     -707.659     510.955     147.404
  O     -705.590     512.299     146.704
  H     -704.879     505.078     147.818
  H     -707.761     511.771     147.932
  H     -698.931     504.623     145.929
  H     -703.667     508.643     144.185
  H     -703.728     505.277     145.506
  H     -702.448     506.560     147.700
  H     -703.915     508.513     147.540
  H     -706.186     506.477     147.174
  H     -707.156     508.379     145.808
  H     -697.547     507.971     143.242
  H     -698.965     508.968     142.876
  H     -707.100     508.685     147.539
  P     -705.421     508.907     149.724
  C     -703.363     508.910     151.259
  O     -704.127     509.652     150.328
  O     -706.170     508.384     151.029
  O     -706.247     509.716     148.776
  H     -705.621     507.757     151.538
  H     -702.498     509.511     151.562
  H     -703.011     507.967     150.817
  H     -703.966     508.687     152.146
  H     -706.952     511.210     142.912
  H     -705.860     510.168     143.792
  H     -705.614     511.898     143.801

 3  4  5  6  7  8  9  10  11  12  22  25  29  30  31  32 0
 6-311+G(2d,p)
 ****
 33  36  37 0
 6-311+G(2d,p)
 ****
 1  2  13  14  15  16  17  18  19  20  21  23  24  26 0
 3-21G
 ****
 27  28  34  35  38  39  40  41  42  43  44  45  46  47  48 0
 3-21G
 ****


