%nproc=1
%NoSave
%Mem=1900MB
#P OB98/GEN NMR

erre ene a

0 1
  C      681.736     176.803      56.641
  O      682.379     176.283      57.793
  P      681.961     176.764      59.263
  C      684.254     177.699      59.948
  O      683.281     176.685      60.174
  C      685.515     177.417      60.780
  O      685.123     177.228      62.178
  C      686.268     176.152      60.329
  O      687.661     176.343      60.056
  C      685.950     175.151      61.429
  O      686.866     174.072      61.511
  C      685.848     176.071      62.649
  N      685.174     175.421      63.787
  C      685.790     174.306      64.328
  O      686.859     173.835      63.939
  N      685.101     173.684      65.337
  C      683.845     173.972      65.768
  O      683.262     173.318      66.598
  C      683.221     175.155      65.111
  C      683.916     175.836      64.188
  O      680.773     176.073      59.856
  O      681.763     178.345      59.090
  H      686.815     173.577      60.663
  H      682.558     178.823      58.781
  H      685.536     172.864      65.740
  H      682.223     175.415      65.417
  H      683.481     176.697      63.701
  H      686.825     176.408      62.981
  H      684.959     174.720      61.213
  H      685.864     175.772      59.369
  H      686.165     178.299      60.721
  H      683.840     178.667      60.251
  H      684.492     177.757      58.884
  P      688.274     176.809      58.659
  C      688.964     174.385      58.044
  O      689.359     175.727      58.202
  O      688.746     178.235      58.614
  O      687.070     176.591      57.616
  H      687.147     177.232      56.893
  H      689.834     173.735      58.226
  H      688.631     174.217      57.020
  H      688.167     174.114      58.734
  H      682.158     176.357      55.765
  H      681.875     177.863      56.603
  H      680.690     176.581      56.686

 3  4  5  6  7  8  9  10  11  12  13  23  28  29  30  31  32 0
 6-311+G(2d,p)
 ****
 33  34 0
 6-311+G(2d,p)
 ****
 1  2  14  15  16  17  18  19  20  21  22  24  25  26  27 0
 3-21G
 ****
 35  36  37  38  39  40  41  42  43  44  45 0
 3-21G
 ****


