%nproc=1
%NoSave
%Mem=1900MB
#P OB98/GEN NMR

erre ene a

0 1
  C        2.099    -181.236    1153.871
  O        1.798    -182.360    1154.672
  P        1.747    -182.241    1156.262
  C        0.422    -183.367    1158.158
  O        0.542    -183.164    1156.755
  C       -0.704    -184.367    1158.457
  O       -2.009    -183.769    1158.204
  C       -0.688    -185.604    1157.581
  O        0.401    -186.495    1157.749
  C       -2.075    -186.160    1157.830
  O       -2.140    -186.899    1159.060
  C       -2.913    -184.861    1157.929
  N       -3.716    -184.626    1156.721
  C       -4.948    -185.249    1156.685
  O       -5.399    -185.958    1157.608
  N       -5.692    -185.058    1155.544
  C       -5.295    -184.348    1154.440
  O       -5.963    -184.257    1153.427
  C       -3.952    -183.743    1154.534
  C       -3.230    -183.894    1155.652
  O        1.725    -180.845    1156.803
  O        3.034    -183.080    1156.732
  H       -3.087    -187.067    1159.240
  H        3.028    -184.006    1156.468
  H       -6.606    -185.506    1155.498
  H       -3.612    -183.163    1153.672
  H       -2.261    -183.457    1155.744
  H       -3.605    -184.929    1158.794
  H       -2.390    -186.850    1157.024
  H       -0.648    -185.298    1156.543
  H       -0.669    -184.607    1159.522
  H        0.180    -182.404    1158.642
  H        1.379    -183.726    1158.567
  P        0.426    -187.985    1157.170
  C        2.291    -189.652    1156.439
  O        1.893    -188.297    1156.591
  O       -0.764    -188.382    1156.329
  O        0.419    -188.864    1158.526
  H       -0.060    -189.693    1158.347
  H        3.315    -189.656    1156.069
  H        1.662    -190.157    1155.697
  H        2.248    -190.176    1157.399
  H        2.084    -181.519    1152.839
  H        3.070    -180.866    1154.126
  H        1.370    -180.471    1154.041

 3  4  5  6  7  8  9  10  11  12  13  23  28  29  30  31  32 0
 6-311+G(2d,p)
 ****
 33  34 0
 6-311+G(2d,p)
 ****
 1  2  14  15  16  17  18  19  20  21  22  24  25  26  27 0
 3-21G
 ****
 35  36  37  38  39  40  41  42  43  44  45 0
 3-21G
 ****


