%nproc=1
%NoSave
%Mem=1900MB
#P OB98/GEN NMR

erre ene a

0 1
  C      -89.167    1735.162    -634.370
  O      -90.567    1735.065    -634.204
  H      -88.702    1734.285    -633.911
  H      -88.793    1736.053    -633.881
  H      -88.904    1735.180    -635.434
  P      -91.509    1736.152    -634.914
  C      -92.294    1734.571    -636.804
  O      -91.598    1735.762    -636.477
  C      -92.525    1734.479    -638.323
  O      -93.322    1735.612    -638.745
  C      -91.207    1734.498    -639.135
  O      -91.347    1733.612    -640.242
  C      -91.115    1735.929    -639.617
  O      -90.373    1736.041    -640.818
  C      -92.588    1736.301    -639.774
  N      -93.526    1740.524    -642.410
  C      -93.476    1739.197    -642.825
  N      -93.684    1738.975    -644.143
  N      -93.232    1738.202    -642.026
  C      -93.058    1738.577    -640.733
  C      -93.088    1739.839    -640.208
  C      -93.334    1740.943    -641.098
  O      -93.375    1742.132    -640.786
  N      -92.862    1739.807    -638.838
  C      -92.678    1738.530    -638.570
  N      -92.795    1737.745    -639.670
  O      -91.151    1737.573    -634.648
  O      -92.972    1735.814    -634.384
  H      -89.427    1735.896    -640.609
  H      -93.273    1736.474    -633.718
  H      -93.706    1741.247    -643.062
  H      -92.475    1738.125    -637.584
  H      -93.001    1736.002    -640.743
  H      -90.649    1736.556    -638.859
  H      -93.905    1739.693    -644.808
  H      -90.349    1734.197    -638.533
  H      -93.684    1738.021    -644.474
  H      -93.098    1733.566    -638.537
  H      -93.254    1734.593    -636.286
  H      -91.729    1733.711    -636.451
  P      -90.513    1732.234    -640.272
  C      -92.088    1730.384    -641.120
  O      -91.512    1731.021    -639.978
  O      -89.255    1732.255    -639.454
  O      -90.177    1732.046    -641.832
  H      -89.305    1731.644    -641.913
  H      -92.734    1729.593    -640.800
  H      -91.310    1729.982    -641.734
  H      -92.652    1731.100    -641.681

 6  7  8  9  10  11  12  13  14  15  26  29  33  34 0
 6-311+G(2d,p)
 ****
 36  38  39  40  41 0
 6-311+G(2d,p)
 ****
 1  2  3  4  5  16  17  18  19  20  21  22  23  24  25 0
 3-21G
 ****
 27  28  30  31  32  35  37  42  43  44  45  46  47 0
 3-21G
 ****
 48  49 0
 3-21G
 ****


