%nproc=1
%NoSave
%Mem=1900MB
#P OB98/GEN NMR

erre ene a

0 1
  C     -175.296     -73.756     -68.682
  O     -175.941     -73.951     -69.933
  P     -176.473     -72.646     -70.707
  C     -178.080     -70.703     -70.081
  O     -177.567     -71.986     -69.736
  C     -179.476     -70.509     -69.496
  O     -180.412     -71.399     -70.136
  C     -179.582     -70.804     -68.006
  O     -179.154     -69.712     -67.210
  C     -181.081     -71.011     -67.862
  O     -181.749     -69.735     -67.817
  C     -181.431     -71.746     -69.161
  N     -183.751     -75.602     -66.733
  C     -183.874     -74.262     -66.618
  N     -183.213     -73.300     -67.293
  C     -182.317     -73.841     -68.138
  C     -182.054     -75.188     -68.334
  C     -182.828     -76.095     -67.594
  N     -182.722     -77.462     -67.734
  N     -181.066     -75.355     -69.280
  C     -180.744     -74.135     -69.655
  N     -181.479     -73.186     -69.001
  O     -177.357     -73.266     -71.890
  O     -175.409     -71.737     -71.217
  H     -181.440     -69.226     -68.591
  H     -177.430     -72.625     -72.623
  H     -184.608     -73.920     -65.894
  H     -179.998     -73.893     -70.399
  H     -182.395     -71.427     -69.574
  H     -181.351     -71.545     -66.945
  H     -179.058     -71.732     -67.746
  H     -179.790     -69.479     -69.707
  H     -178.135     -70.622     -71.171
  H     -183.433     -78.037     -67.310
  H     -182.182     -77.819     -68.514
  H     -177.398     -69.932     -69.706
  P     -178.672     -70.050     -65.715
  C     -179.957     -71.079     -63.704
  O     -180.018     -70.300     -64.883
  O     -178.138     -68.640     -65.179
  O     -177.635     -71.120     -65.635
  H     -177.476     -68.772     -64.475
  H     -180.856     -70.891     -63.113
  H     -179.082     -70.815     -63.100
  H     -179.918     -72.141     -63.962
  H     -174.997     -74.703     -68.284
  H     -175.972     -73.281     -68.002
  H     -174.434     -73.137     -68.818

 3  4  5  6  7  8  9  10  11  12  22  25  29  30  31  32 0
 6-311+G(2d,p)
 ****
 33  36  37 0
 6-311+G(2d,p)
 ****
 1  2  13  14  15  16  17  18  19  20  21  23  24  26 0
 3-21G
 ****
 27  28  34  35  38  39  40  41  42  43  44  45  46  47  48 0
 3-21G
 ****


