%nproc=1
%NoSave
%Mem=1900MB
#P OB98/GEN NMR

erre ene a

0 1
  C      -81.115     460.994     112.439
  O      -82.428     460.519     112.160
  P      -82.576     459.108     111.408
  C      -82.751     460.335     109.122
  O      -82.089     459.333     109.892
  C      -83.461     459.724     107.920
  O      -84.339     460.728     107.325
  C      -82.529     459.229     106.814
  O      -83.154     458.088     106.203
  C      -82.532     460.376     105.817
  O      -82.126     459.963     104.515
  C      -83.990     460.831     105.925
  N      -83.600     463.961     101.901
  C      -83.361     462.645     102.035
  N      -83.499     461.878     103.140
  C      -83.902     462.617     104.186
  C      -84.149     463.983     104.211
  C      -83.988     464.676     102.995
  N      -84.227     466.014     102.852
  N      -84.522     464.390     105.470
  C      -84.510     463.285     106.204
  N      -84.162     462.192     105.463
  O      -84.166     458.951     111.271
  O      -81.973     457.939     112.105
  H      -82.217     460.721     103.910
  H      -84.481     458.217     111.842
  H      -83.044     462.122     101.135
  H      -84.746     463.241     107.261
  H      -84.665     460.189     105.361
  H      -81.842     461.157     106.163
  H      -81.529     458.966     107.153
  H      -84.104     458.913     108.272
  H      -82.000     461.052     108.765
  H      -84.221     466.410     101.920
  H      -84.694     466.511     103.603
  H      -83.471     460.872     109.760
  P      -82.498     456.656     106.489
  C      -81.751     456.559     104.011
  O      -81.381     456.426     105.370
  O      -83.661     455.626     106.085
  O      -82.062     456.451     107.906
  H      -83.565     454.801     106.596
  H      -80.898     456.951     103.450
  H      -82.607     457.230     103.881
  H      -82.009     455.573     103.610
  H      -81.176     461.938     112.939
  H      -80.575     461.110     111.522
  H      -80.607     460.291     113.065

 3  4  5  6  7  8  9  10  11  12  22  25  29  30  31  32 0
 6-311+G(2d,p)
 ****
 33  36  37 0
 6-311+G(2d,p)
 ****
 1  2  13  14  15  16  17  18  19  20  21  23  24  26 0
 3-21G
 ****
 27  28  34  35  38  39  40  41  42  43  44  45  46  47  48 0
 3-21G
 ****


