%nproc=1
%NoSave
%Mem=1900MB
#P OB98/GEN NMR

erre ene a

0 1
  C       50.689     129.879    -191.287
  O       51.124     130.775    -192.307
  P       51.057     132.366    -192.208
  C       53.421     132.678    -193.301
  O       52.031     132.977    -193.321
  C       54.106     132.902    -194.658
  O       53.674     131.879    -195.592
  C       53.682     134.243    -195.260
  O       54.333     135.435    -194.867
  C       53.676     134.006    -196.764
  O       54.905     134.385    -197.383
  C       53.463     132.494    -196.880
  N       50.686     130.810    -200.833
  C       52.038     131.088    -200.772
  N       52.735     130.951    -201.920
  N       52.644     131.486    -199.687
  C       51.819     131.666    -198.633
  C       50.461     131.444    -198.579
  C       49.805     130.947    -199.770
  O       48.614     130.673    -199.876
  N       49.950     131.761    -197.345
  C       50.989     132.196    -196.665
  N       52.150     132.151    -197.403
  O       51.161     132.931    -190.833
  O       49.582     132.710    -192.766
  H       55.026     135.343    -197.251
  H       49.277     133.505    -192.281
  H       50.275     130.484    -201.690
  H       50.960     132.547    -195.641
  H       54.195     132.044    -197.563
  H       52.891     134.603    -197.244
  H       52.307     130.766    -202.813
  H       52.629     134.399    -194.984
  H       53.670     131.361    -201.933
  H       55.189     132.790    -194.572
  H       53.515     131.633    -192.991
  H       53.918     133.275    -192.534
  P       53.868     136.928    -195.213
  C       53.405     137.601    -192.785
  O       54.181     137.849    -193.943
  O       52.271     136.849    -195.202
  O       54.367     137.459    -196.517
  H       51.888     137.627    -195.649
  H       53.480     138.457    -192.114
  H       53.789     136.714    -192.273
  H       52.355     137.443    -193.044
  H       50.845     128.870    -191.608
  H       49.648     130.035    -191.095
  H       51.248     130.059    -190.392

 3  4  5  6  7  8  9  10  11  12  23  26  30  31 0
 6-311+G(2d,p)
 ****
 33  35  36  37  38 0
 6-311+G(2d,p)
 ****
 1  2  13  14  15  16  17  18  19  20  21  22  24  25 0
 3-21G
 ****
 27  28  29  32  34  39  40  41  42  43  44  45  46  47  48  49 0
 3-21G
 ****


