%nproc=1
%NoSave
%Mem=1900MB
#P OB98/GEN NMR

erre ene a

0 1
  C      205.235     115.666    -120.772
  O      205.134     115.504    -119.368
  P      206.410     114.911    -118.593
  C      205.138     112.658    -118.366
  O      205.891     113.671    -117.716
  C      203.938     112.240    -117.515
  O      204.414     111.815    -116.207
  C      202.899     113.351    -117.286
  O      201.618     112.716    -117.245
  C      203.296     113.878    -115.918
  O      202.290     114.648    -115.282
  C      203.676     112.575    -115.223
  N      205.281     110.477    -110.848
  C      204.544     109.981    -111.866
  N      204.162     110.597    -113.005
  C      204.633     111.855    -113.042
  C      205.379     112.504    -112.074
  C      205.709     111.758    -110.930
  N      206.454     112.271    -109.888
  N      205.654     113.801    -112.451
  C      205.080     113.937    -113.629
  N      204.470     112.782    -114.036
  O      206.720     116.032    -117.498
  O      207.598     114.628    -119.460
  H      202.027     115.393    -115.857
  H      207.681     116.155    -117.381
  H      204.216     108.952    -111.752
  H      205.065     114.844    -114.217
  H      202.794     111.988    -114.940
  H      204.173     114.528    -116.028
  H      202.898     114.111    -118.073
  H      203.464     111.372    -117.988
  H      205.770     111.779    -118.521
  H      206.464     111.729    -109.036
  H      206.586     113.274    -109.866
  H      204.816     113.019    -119.349
  P      200.466     113.230    -118.237
  C      198.953     113.879    -116.265
  O      199.113     113.039    -117.392
  O      200.379     112.004    -119.264
  O      200.696     114.559    -118.872
  H      200.293     111.153    -118.799
  H      197.957     113.712    -115.846
  H      199.044     114.929    -116.557
  H      199.701     113.633    -115.507
  H      204.318     116.067    -121.152
  H      205.425     114.717    -121.228
  H      206.038     116.337    -120.997

 3  4  5  6  7  8  9  10  11  12  22  25  29  30  31  32 0
 6-311+G(2d,p)
 ****
 33  36  37 0
 6-311+G(2d,p)
 ****
 1  2  13  14  15  16  17  18  19  20  21  23  24  26 0
 3-21G
 ****
 27  28  34  35  38  39  40  41  42  43  44  45  46  47  48 0
 3-21G
 ****


