%nproc=1
%NoSave
%Mem=1900MB
#P OB98/GEN NMR

erre ene a

0 1
  C      217.208    -403.333    -105.054
  O      218.431    -403.370    -105.760
  H      216.406    -403.757    -105.664
  H      217.308    -403.926    -104.142
  H      216.961    -402.301    -104.783
  P      218.502    -402.547    -107.139
  C      216.993    -402.590    -109.257
  O      217.528    -403.318    -108.156
  C      217.021    -403.461    -110.507
  O      218.383    -403.818    -110.841
  C      216.270    -404.785    -110.367
  O      214.876    -404.631    -110.550
  C      216.894    -405.573    -111.508
  O      216.326    -405.150    -112.760
  C      218.362    -405.151    -111.418
  N      221.613    -409.105    -111.471
  C      220.953    -408.466    -112.465
  N      220.104    -407.423    -112.367
  C      219.955    -407.048    -111.082
  C      220.552    -407.611    -109.968
  C      221.425    -408.689    -110.199
  N      222.088    -409.356    -109.191
  N      220.128    -406.981    -108.810
  C      219.318    -406.028    -109.235
  N      219.170    -406.034    -110.595
  O      219.962    -402.886    -107.705
  O      218.258    -401.081    -107.029
  H      215.379    -405.383    -112.732
  H      220.238    -402.208    -108.349
  H      221.137    -408.841    -113.466
  H      218.817    -405.316    -108.594
  H      218.845    -405.089    -112.402
  H      216.718    -406.649    -111.424
  H      216.502    -405.283    -109.419
  H      216.618    -402.870    -111.343
  H      217.600    -401.696    -109.422
  H      222.538    -410.224    -109.439
  H      221.838    -409.151    -108.232
  H      215.965    -402.288    -109.021
  P      213.910    -405.418    -109.531
  C      213.163    -407.897    -109.277
  O      213.866    -406.933    -110.056
  O      212.462    -404.849    -109.900
  O      214.242    -405.237    -108.090
  H      211.859    -404.908    -109.134
  H      213.223    -408.853    -109.753
  H      212.137    -407.606    -109.190
  H      213.601    -407.956    -108.302

 6  7  8  9  10  11  12  13  14  15  25  28  32  33  34  35 0
 6-311+G(2d,p)
 ****
 36  39  40 0
 6-311+G(2d,p)
 ****
 1  2  3  4  5  16  17  18  19  20  21  22  23  24 0
 3-21G
 ****
 26  27  29  30  31  37  38  41  42  43  44  45  46  47 0
 3-21G
 ****
 48 0
 3-21G
 ****


