%nproc=1
%NoSave
%Mem=1900MB
#P OB98/GEN NMR

erre ene a

0 1
  C     -205.093     162.715    -897.810
  O     -205.552     163.604    -896.780
  P     -205.966     163.003    -895.340
  C     -208.383     163.921    -895.400
  O     -207.543     162.737    -895.330
  C     -209.816     163.524    -895.250
  O     -210.390     163.049    -896.470
  C     -210.070     162.416    -894.220
  O     -209.955     162.918    -892.900
  C     -211.454     161.951    -894.600
  O     -212.468     162.806    -894.040
  C     -211.427     162.115    -896.150
  N     -213.661     158.215    -898.570
  C     -214.168     159.236    -897.840
  N     -213.514     160.223    -897.220
  C     -212.169     160.049    -897.340
  C     -211.505     159.021    -897.990
  C     -212.310     158.075    -898.670
  N     -211.800     157.057    -899.440
  N     -210.153     159.166    -897.880
  C     -209.983     160.261    -897.130
  N     -211.199     160.857    -896.860
  O     -205.434     163.752    -894.170
  O     -205.335     161.501    -895.380
  H     -212.321     162.809    -893.050
  H     -204.679     161.414    -894.660
  H     -215.254     159.293    -897.830
  H     -209.035     160.657    -896.810
  H     -212.373     162.544    -896.530
  H     -211.683     160.926    -894.290
  H     -209.343     161.601    -894.380
  H     -210.395     164.442    -894.940
  H     -208.199     164.395    -896.390
  H     -212.465     156.554    -900.000
  H     -210.825     157.137    -899.770
  H     -208.053     164.610    -894.630
  P     -209.688     161.895    -891.680
  C     -211.898     162.481    -890.490
  O     -211.126     161.474    -891.110
  O     -208.684     162.331    -890.640
  O     -209.187     160.545    -892.440
  H     -208.548     160.049    -891.860
  H     -211.496     162.702    -889.500
  H     -212.933     162.181    -890.430
  H     -211.850     163.425    -891.100
  H     -204.864     163.278    -898.691
  H     -205.858     162.001    -898.032
  H     -204.215     162.204    -897.475

 3  4  5  6  7  8  9  10  11  12  22  25  29  30  31  32 0
 6-311+G(2d,p)
 ****
 33  36  37 0
 6-311+G(2d,p)
 ****
 1  2  13  14  15  16  17  18  19  20  21  23  24  26 0
 3-21G
 ****
 27  28  34  35  38  39  40  41  42  43  44  45  46  47  48 0
 3-21G
 ****


