%nproc=1
%NoSave
%Mem=1900MB
#P OB98/GEN NMR

erre ene a

0 1
  C      203.150    -142.111    -157.032
  O      202.925    -140.829    -156.449
  P      204.196    -139.941    -156.042
  C      205.555    -137.979    -157.023
  O      204.520    -138.931    -157.247
  C      205.974    -137.314    -158.345
  O      206.504    -138.333    -159.235
  C      204.835    -136.640    -159.119
  O      204.542    -135.275    -158.836
  C      205.379    -136.682    -160.545
  O      206.272    -135.572    -160.759
  C      206.166    -137.987    -160.595
  N      206.570    -142.193    -163.480
  C      207.493    -141.321    -163.020
  N      207.302    -140.224    -162.259
  C      206.003    -140.072    -161.959
  C      204.951    -140.881    -162.352
  C      205.272    -141.989    -163.155
  N      204.332    -142.871    -163.632
  N      203.755    -140.402    -161.858
  C      204.081    -139.312    -161.194
  N      205.429    -139.076    -161.213
  O      205.366    -140.688    -155.498
  O      203.586    -138.956    -154.932
  H      205.787    -134.770    -160.488
  H      204.255    -138.812    -154.236
  H      208.521    -141.528    -163.305
  H      203.379    -138.666    -160.687
  H      207.106    -137.887    -161.148
  H      204.588    -136.595    -161.296
  H      203.916    -137.234    -159.056
  H      206.771    -136.588    -158.146
  H      206.417    -138.476    -156.572
  H      204.641    -143.614    -164.237
  H      203.353    -142.702    -163.448
  H      205.187    -137.260    -156.291
  P      203.307    -134.863    -157.903
  C      202.717    -136.328    -155.818
  O      203.637    -135.472    -156.458
  O      201.963    -135.224    -158.436
  O      203.538    -133.295    -157.694
  H      204.318    -133.072    -157.159
  H      203.211    -136.798    -154.963
  H      202.374    -137.110    -156.499
  H      201.862    -135.748    -155.456
  H      202.210    -142.576    -157.246
  H      203.703    -142.722    -156.349
  H      203.706    -141.998    -157.939

 3  4  5  6  7  8  9  10  11  12  22  25  29  30  31  32 0
 6-311+G(2d,p)
 ****
 33  36  37 0
 6-311+G(2d,p)
 ****
 1  2  13  14  15  16  17  18  19  20  21  23  24  26 0
 3-21G
 ****
 27  28  34  35  38  39  40  41  42  43  44  45  46  47  48 0
 3-21G
 ****


