%nproc=1
%NoSave
%Mem=1900MB
#P OB98/GEN NMR

erre ene a

0 1
  C     -476.993    -465.569    -501.334
  O     -477.630    -465.922    -500.125
  H     -477.696    -465.713    -502.162
  H     -476.118    -466.205    -501.507
  H     -476.689    -464.519    -501.310
  P     -476.734    -465.883    -498.795
  C     -478.865    -464.758    -497.826
  O     -477.728    -465.568    -497.575
  C     -479.977    -465.119    -496.840
  O     -479.489    -464.984    -495.480
  C     -481.199    -464.218    -496.918
  O     -482.050    -464.546    -498.002
  C     -481.846    -464.481    -495.571
  O     -482.668    -465.653    -495.596
  C     -480.621    -464.680    -494.649
  N     -480.387    -463.512    -493.803
  C     -481.349    -463.269    -492.829
  O     -482.346    -463.980    -492.667
  N     -481.156    -462.153    -492.060
  C     -480.143    -461.250    -492.203
  O     -480.060    -460.243    -491.521
  C     -479.165    -461.549    -493.260
  C     -479.332    -462.650    -494.005
  O     -475.892    -464.535    -498.961
  O     -475.855    -467.074    -498.593
  H     -474.967    -464.752    -499.184
  H     -483.009    -465.756    -494.683
  H     -481.844    -461.968    -491.348
  H     -478.346    -460.852    -493.405
  H     -478.627    -462.886    -494.798
  H     -480.775    -465.551    -493.997
  H     -482.474    -463.646    -495.268
  H     -480.891    -463.161    -496.967
  H     -480.258    -466.170    -497.000
  H     -479.228    -464.937    -498.847
  H     -478.585    -463.705    -497.733
  P     -482.968    -463.375    -498.612
  C     -482.638    -464.390    -501.021
  O     -483.526    -463.934    -500.007
  O     -481.849    -462.308    -499.023
  O     -483.994    -462.872    -497.655
  H     -480.995    -462.735    -499.217
  H     -483.203    -464.721    -501.868
  H     -482.053    -465.202    -500.644
  H     -481.991    -463.590    -501.314

 6  7  8  9  10  11  12  13  14  15  16  27  31  32  33  34  35 0
 6-311+G(2d,p)
 ****
 36  37 0
 6-311+G(2d,p)
 ****
 1  2  3  4  5  17  18  19  20  21  22  23  24  25 0
 3-21G
 ****
 26  28  29  30  38  39  40  41  42  43  44  45 0
 3-21G
 ****


