%nproc=1
%NoSave
%Mem=1900MB
#P OB98/GEN NMR

erre ene a

0 1
  C     -103.043     428.593     221.187
  O     -102.080     428.029     222.088
  P     -100.517     427.896     221.744
  C     -100.458     425.566     222.872
  O      -99.866     426.858     222.781
  C      -99.811     424.750     223.994
  O      -98.373     424.728     223.833
  C     -100.023     425.295     225.397
  O     -101.341     425.083     225.868
  C      -98.947     424.540     226.176
  O      -99.408     423.238     226.575
  C      -97.823     424.399     225.133
  N      -96.665     425.222     225.432
  C      -95.699     424.664     226.276
  O      -95.886     423.561     226.793
  N      -94.553     425.379     226.526
  C      -94.431     426.584     226.064
  N      -93.266     427.234     226.330
  C      -95.484     427.260     225.286
  C      -96.562     426.530     225.009
  O      -99.800     429.203     221.673
  O     -100.458     427.128     220.340
  H      -99.636     427.365     219.873
  H      -98.616     422.671     226.663
  H      -95.360     428.282     224.954
  H      -97.379     426.943     224.426
  H      -97.508     423.352     225.051
  H      -98.648     425.066     227.086
  H      -99.792     426.367     225.407
  H     -100.186     423.719     223.924
  H      -92.561     426.739     226.858
  H     -100.302     425.045     221.919
  H      -93.061     428.168     225.999
  H     -101.533     425.674     223.035
  P     -101.846     426.023     227.065
  C     -103.394     424.263     228.181
  O     -103.294     425.507     227.513
  O     -102.145     427.422     226.343
  O     -100.864     426.185     228.180
  H     -101.865     428.155     226.924
  H     -104.281     424.278     228.822
  H     -102.514     424.065     228.802
  H     -103.506     423.465     227.446
  H     -104.012     428.571     221.641
  H     -103.061     428.023     220.281
  H     -102.775     429.605     220.967

 3  4  5  6  7  8  9  10  11  12  13  24  27  28  29  30  32 0
 6-311+G(2d,p)
 ****
 34  35 0
 6-311+G(2d,p)
 ****
 1  2  14  15  16  17  18  19  20  21  22  23  25  26 0
 3-21G
 ****
 31  33  36  37  38  39  40  41  42  43  44  45  46 0
 3-21G
 ****


