%nproc=1
%NoSave
%Mem=1900MB
#P OB98/GEN NMR

erre ene a

0 1
  C       10.882    -101.633      20.871
  O       11.437    -100.833      21.908
  P       13.041    -100.727      22.001
  C       13.399    -103.143      22.860
  O       13.515    -101.761      23.138
  C       12.810    -103.901      24.059
  O       12.652    -105.301      23.690
  C       13.671    -103.858      25.327
  O       12.775    -103.871      26.446
  C       14.428    -105.174      25.282
  O       14.910    -105.563      26.565
  C       13.350    -106.089      24.693
  N       15.592    -110.595      25.620
  C       15.125    -109.636      26.446
  N       14.540    -108.455      26.128
  C       14.459    -108.318      24.793
  C       14.915    -109.197      23.826
  C       15.511    -110.389      24.278
  N       15.974    -111.373      23.438
  N       14.671    -108.694      22.554
  C       14.079    -107.535      22.754
  N       13.907    -107.286      24.095
  O       13.258     -99.292      22.684
  O       13.764    -100.823      20.700
  H       15.558    -106.283      26.439
  H       13.656     -98.677      22.039
  H       15.235    -109.837      27.519
  H       13.765    -106.855      21.983
  H       12.612    -106.399      25.450
  H       15.280    -105.087      24.600
  H       14.340    -102.991      25.383
  H       11.808    -103.507      24.254
  H       14.400    -103.547      22.654
  H       16.260    -112.252      23.838
  H       15.747    -111.314      22.440
  H       12.780    -103.298      21.971
  P       12.695    -102.535      27.331
  C       13.073    -104.032      29.420
  O       12.331    -102.983      28.822
  O       11.363    -101.820      26.802
  O       13.895    -101.641      27.191
  H       11.435    -100.855      26.923
  H       13.156    -103.853      30.493
  H       14.081    -104.111      28.996
  H       12.549    -104.979      29.250
  H        9.814    -101.608      20.934
  H       11.223    -102.642      20.978
  H       11.192    -101.251      19.921

 3  4  5  6  7  8  9  10  11  12  22  25  29  30  31  32 0
 6-311+G(2d,p)
 ****
 33  36  37 0
 6-311+G(2d,p)
 ****
 1  2  13  14  15  16  17  18  19  20  21  23  24  26 0
 3-21G
 ****
 27  28  34  35  38  39  40  41  42  43  44  45  46  47  48 0
 3-21G
 ****


