%nproc=1
%NoSave
%Mem=1900MB
#P OB98/GEN NMR

erre ene a

0 1
  C     -356.312     180.499    -360.252
  O     -357.210     179.407    -360.262
  H     -355.321     180.135    -360.540
  H     -356.250     180.938    -359.255
  H     -356.629     181.257    -360.976
  P     -358.716     179.655    -359.764
  C     -359.448     177.674    -361.256
  O     -359.499     178.272    -359.968
  C     -360.489     176.548    -361.376
  O     -359.987     175.370    -360.677
  C     -361.857     176.898    -360.762
  O     -362.851     176.178    -361.498
  C     -361.706     176.330    -359.363
  O     -362.950     176.239    -358.711
  C     -360.967     175.025    -359.669
  N     -360.351     174.440    -358.490
  C     -361.224     173.881    -357.549
  O     -362.437     173.924    -357.730
  N     -360.699     173.335    -356.405
  C     -359.418     173.398    -356.190
  N     -358.967     172.839    -355.031
  C     -358.471     174.022    -357.135
  C     -358.999     174.518    -358.252
  O     -359.400     180.852    -360.334
  O     -358.582     179.762    -358.173
  H     -362.859     175.777    -357.845
  H     -358.666     180.691    -357.895
  H     -357.419     174.057    -356.897
  H     -358.379     174.998    -359.005
  H     -361.646     174.282    -360.113
  H     -361.078     176.987    -358.747
  H     -362.070     177.972    -360.779
  H     -360.592     176.269    -362.434
  H     -359.652     172.431    -354.413
  H     -358.444     177.268    -361.393
  H     -357.998     172.843    -354.754
  H     -359.635     178.430    -362.031
  P     -363.837     176.881    -362.549
  C     -363.791     175.448    -364.695
  O     -364.487     175.762    -363.499
  O     -363.222     178.020    -363.291
  O     -365.082     177.387    -361.667
  H     -365.449     178.194    -362.077
  H     -364.327     174.694    -365.232
  H     -362.813     175.087    -364.454
  H     -363.708     176.326    -365.301

 6  7  8  9  10  11  12  13  14  15  16  26  30  31  32  33  35 0
 6-311+G(2d,p)
 ****
 37  38 0
 6-311+G(2d,p)
 ****
 1  2  3  4  5  17  18  19  20  21  22  23  24  25 0
 3-21G
 ****
 27  28  29  34  36  39  40  41  42  43  44  45  46 0
 3-21G
 ****


