%nproc=1
%NoSave
%Mem=1900MB
#P OB98/GEN NMR

erre ene a

0 1
  C     1135.869    1311.844    -284.916
  O     1135.056    1312.585    -285.810
  H     1136.897    1311.862    -285.287
  H     1135.538    1310.813    -284.847
  H     1135.851    1312.310    -283.919
  P     1133.476    1312.618    -285.542
  C     1132.553    1311.907    -287.848
  O     1132.781    1312.979    -286.944
  C     1132.404    1312.414    -289.281
  O     1133.703    1312.834    -289.772
  C     1131.842    1311.377    -290.263
  O     1131.118    1312.060    -291.281
  C     1133.129    1310.789    -290.841
  O     1132.888    1310.040    -291.994
  C     1133.966    1312.064    -290.975
  N     1135.384    1311.789    -291.145
  C     1135.801    1311.497    -292.448
  O     1134.993    1311.487    -293.376
  N     1137.125    1311.225    -292.681
  C     1137.947    1311.171    -291.661
  N     1139.248    1310.870    -291.945
  C     1137.527    1311.406    -290.262
  C     1136.260    1311.713    -290.085
  O     1133.031    1313.467    -284.394
  O     1133.082    1311.081    -285.322
  H     1133.715    1309.902    -292.495
  H     1132.935    1310.907    -284.377
  H     1138.262    1311.319    -289.452
  H     1135.855    1311.909    -289.078
  H     1133.623    1312.668    -291.832
  H     1133.589    1310.107    -290.104
  H     1131.215    1310.616    -289.784
  H     1131.758    1313.317    -289.259
  H     1139.495    1310.702    -292.925
  H     1131.639    1311.402    -287.527
  H     1139.970    1310.764    -291.242
  H     1133.380    1311.182    -287.804
  P     1129.540    1311.875    -291.512
  C     1129.513    1311.459    -294.048
  O     1129.168    1312.341    -292.997
  O     1128.690    1312.479    -290.451
  O     1129.325    1310.287    -291.558
  H     1128.435    1310.082    -291.213
  H     1129.213    1311.884    -294.983
  H     1129.015    1310.523    -293.906
  H     1130.572    1311.304    -294.050

 6  7  8  9  10  11  12  13  14  15  16  26  30  31  32  33  35 0
 6-311+G(2d,p)
 ****
 37  38 0
 6-311+G(2d,p)
 ****
 1  2  3  4  5  17  18  19  20  21  22  23  24  25 0
 3-21G
 ****
 27  28  29  34  36  39  40  41  42  43  44  45  46 0
 3-21G
 ****


