%nproc=1
%NoSave
%Mem=1900MB
#P OB98/GEN NMR

erre ene a

0 1
  C      242.073     138.972    -162.658
  O      241.071     139.883    -163.072
  P      240.214     140.693    -161.990
  C      238.111     139.255    -162.339
  O      239.087     139.711    -161.406
  C      237.132     138.298    -161.661
  O      237.836     137.200    -161.035
  C      236.320     138.931    -160.539
  O      235.318     139.801    -161.036
  C      235.799     137.695    -159.821
  O      234.655     137.152    -160.500
  C      237.003     136.735    -159.947
  N      237.756     136.627    -158.704
  C      237.745     135.376    -158.084
  O      237.057     134.459    -158.541
  N      238.505     135.196    -156.955
  C      239.119     136.210    -156.422
  N      239.907     135.959    -155.344
  C      239.022     137.584    -156.960
  C      238.352     137.715    -158.103
  O      239.713     142.023    -162.439
  O      241.216     140.855    -160.748
  H      241.227     141.794    -160.477
  H      234.284     136.464    -159.919
  H      239.497     138.402    -156.441
  H      238.246     138.683    -158.584
  H      236.660     135.735    -160.236
  H      235.494     137.907    -158.795
  H      236.986     139.488    -159.871
  H      236.466     137.889    -162.431
  H      239.961     135.001    -155.014
  H      238.621     138.742    -163.156
  H      240.660     136.581    -155.062
  H      237.578     140.118    -162.752
  P      234.960     141.081    -160.138
  C      233.135     139.899    -158.730
  O      234.394     140.545    -158.738
  O      233.670     141.691    -160.861
  O      236.054     142.096    -160.034
  H      233.694     142.667    -160.816
  H      233.057     139.305    -157.820
  H      233.014     139.242    -159.594
  H      232.342     140.654    -158.729
  H      242.532     138.532    -163.518
  H      241.631     138.204    -162.058
  H      242.813     139.491    -162.085

 3  4  5  6  7  8  9  10  11  12  13  24  27  28  29  30  32 0
 6-311+G(2d,p)
 ****
 34  35 0
 6-311+G(2d,p)
 ****
 1  2  14  15  16  17  18  19  20  21  22  23  25  26 0
 3-21G
 ****
 31  33  36  37  38  39  40  41  42  43  44  45  46 0
 3-21G
 ****


