%nproc=1
%NoSave
%Mem=1900MB
#P OB98/GEN NMR

erre ene a

0 1
  C     -506.867     428.352     -98.254
  O     -507.304     427.555     -99.341
  H     -506.306     427.724     -97.557
  H     -507.730     428.775     -97.731
  H     -506.219     429.155     -98.613
  P     -508.128     428.300    -100.492
  C     -510.455     429.409    -100.205
  O     -509.134     429.267     -99.695
  C     -511.237     430.423     -99.377
  O     -511.490     429.924     -98.052
  C     -510.526     431.761     -99.177
  O     -510.680     432.590    -100.320
  C     -511.276     432.307     -97.973
  O     -512.528     432.876     -98.401
  C     -511.530     431.045     -97.133
  N     -510.809     431.050     -92.050
  C     -511.831     431.499     -92.810
  N     -511.937     431.503     -94.155
  C     -510.842     430.975     -94.730
  C     -509.717     430.484     -94.074
  C     -509.727     430.524     -92.672
  N     -508.689     430.054     -91.895
  N     -508.782     430.025     -94.983
  C     -509.360     430.195     -96.162
  N     -510.582     430.800     -96.058
  O     -508.742     427.418    -101.527
  O     -507.026     429.331    -101.039
  H     -513.064     433.047     -97.605
  H     -506.498     429.685    -100.306
  H     -512.677     431.904     -92.265
  H     -508.932     429.881     -97.113
  H     -512.533     431.057     -96.673
  H     -510.724     433.105     -97.467
  H     -509.473     431.611     -98.910
  H     -512.213     430.578     -99.863
  H     -510.971     428.445    -100.192
  H     -508.703     430.279     -90.915
  H     -507.844     429.779     -92.363
  H     -510.372     429.750    -101.242
  P     -510.097     434.088    -100.326
  C     -511.100     436.421    -100.741
  O     -511.372     435.067    -100.370
  O     -509.068     434.358    -101.369
  O     -509.527     434.302     -98.854
  H     -508.696     434.825     -98.879
  H     -512.011     436.981    -100.739
  H     -510.670     436.443    -101.721
  H     -510.415     436.852    -100.041

 6  7  8  9  10  11  12  13  14  15  25  28  32  33  34  35 0
 6-311+G(2d,p)
 ****
 36  39  40 0
 6-311+G(2d,p)
 ****
 1  2  3  4  5  16  17  18  19  20  21  22  23  24 0
 3-21G
 ****
 26  27  29  30  31  37  38  41  42  43  44  45  46  47 0
 3-21G
 ****
 48 0
 3-21G
 ****


