%nproc=1
%NoSave
%Mem=1900MB
#P OB98/GEN NMR

erre ene a

0 1
  C      -80.555      48.566       3.071
  O      -80.967      49.108       4.314
  P      -80.359      50.529       4.755
  C      -78.976      49.251       6.556
  O      -78.984      50.225       5.524
  C      -77.560      48.708       6.771
  O      -77.050      48.234       5.498
  C      -76.552      49.731       7.310
  O      -75.623      49.011       8.129
  C      -75.855      50.218       6.054
  O      -74.582      50.797       6.321
  C      -75.813      48.932       5.237
  N      -72.674      50.472       1.577
  C      -72.484      50.428       2.947
  N      -71.262      50.791       3.394
  N      -73.404      50.060       3.800
  C      -74.570      49.711       3.204
  C      -74.892      49.746       1.866
  C      -73.853      50.120       0.933
  O      -73.951      50.089      -0.291
  N      -76.203      49.404       1.656
  C      -76.644      49.081       2.854
  N      -75.680      49.205       3.817
  O      -81.349      50.994       5.921
  O      -80.236      51.547       3.663
  H      -74.101      50.869       5.470
  H      -82.059      51.567       5.571
  H      -71.921      50.746       0.970
  H      -77.646      48.746       3.083
  H      -74.981      48.277       5.528
  H      -76.471      50.981       5.559
  H      -70.496      51.055       2.793
  H      -77.016      50.544       7.880
  H      -71.084      50.735       4.390
  H      -77.623      47.842       7.442
  H      -79.629      48.421       6.265
  H      -79.368      49.693       7.479
  P      -75.314      49.584       9.593
  C      -73.642      51.308       8.620
  O      -74.783      51.086       9.424
  O      -73.997      48.776      10.021
  O      -76.409      49.382      10.591
  H      -73.996      48.638      10.988
  H      -73.649      52.349       8.283
  H      -73.631      50.654       7.743
  H      -72.741      51.135       9.214
  H      -81.039      47.625       2.914
  H      -79.494      48.425       3.077
  H      -80.821      49.239       2.283

 3  4  5  6  7  8  9  10  11  12  23  26  30  31 0
 6-311+G(2d,p)
 ****
 33  35  36  37  38 0
 6-311+G(2d,p)
 ****
 1  2  13  14  15  16  17  18  19  20  21  22  24  25 0
 3-21G
 ****
 27  28  29  32  34  39  40  41  42  43  44  45  46  47  48  49 0
 3-21G
 ****


