%nproc=1
%NoSave
%Mem=1900MB
#P OB98/GEN NMR

erre ene a

0 1
  C      -51.189     599.618     326.558
  O      -51.947     600.618     325.906
  P      -52.959     601.494     326.803
  C      -55.492     600.943     326.449
  O      -54.255     600.597     327.061
  C      -55.497     600.495     324.995
  O      -55.141     599.084     324.895
  C      -56.861     600.609     324.319
  O      -57.124     601.939     323.922
  C      -56.709     599.642     323.140
  O      -56.039     600.280     322.039
  C      -55.819     598.532     323.753
  N      -56.584     597.340     324.090
  C      -56.664     596.354     323.100
  O      -56.133     596.480     321.998
  N      -57.377     595.240     323.422
  C      -58.060     595.029     324.576
  O      -58.753     594.033     324.801
  C      -57.985     596.130     325.576
  C      -57.266     597.202     325.292
  O      -53.474     602.629     325.801
  O      -52.345     602.076     328.034
  H      -56.621     601.025     321.756
  H      -53.610     603.468     326.283
  H      -57.423     594.514     322.730
  H      -58.515     595.981     326.514
  H      -57.194     598.022     326.004
  H      -55.028     598.250     323.034
  H      -57.682     599.300     322.769
  H      -57.647     600.235     324.980
  H      -54.732     601.074     324.446
  H      -55.615     602.048     326.499
  H      -56.302     600.486     327.004
  P      -58.667     602.396     323.829
  C      -59.519     602.467     321.348
  O      -59.219     601.692     322.489
  O      -58.501     603.940     323.459
  O      -59.429     602.128     325.090
  H      -57.712     604.124     322.926
  H      -58.829     603.313     321.254
  H      -60.538     602.856     321.434
  H      -59.450     601.838     320.466
  H      -50.566     599.121     325.844
  H      -51.849     598.908     327.011
  H      -50.578     600.068     327.312

 3  4  5  6  7  8  9  10  11  12  13  23  28  29  30  31  32 0
 6-311+G(2d,p)
 ****
 33  34 0
 6-311+G(2d,p)
 ****
 1  2  14  15  16  17  18  19  20  21  22  24  25  26 0
 3-21G
 ****
 27  35  36  37  38  39  40  41  42  43  44  45 0
 3-21G
 ****


