%nproc=1
%NoSave
%Mem=1900MB
#P OB98/GEN NMR

erre ene a

0 1
  C      518.188     349.967    -131.343
  O      519.604     350.028    -131.315
  P      520.407     348.652    -131.121
  C      522.585     349.032    -132.484
  O      521.966     349.011    -131.205
  C      524.066     349.399    -132.386
  O      524.181     350.766    -131.909
  C      524.873     348.511    -131.442
  O      526.177     348.325    -132.012
  C      525.002     349.348    -130.181
  O      526.138     348.965    -129.409
  C      525.064     350.760    -130.773
  N      524.682     351.783    -129.802
  C      525.666     352.211    -128.896
  O      526.779     351.664    -128.906
  N      525.362     353.186    -127.987
  C      524.146     353.634    -127.908
  N      523.885     354.600    -126.990
  C      523.035     353.125    -128.748
  C      523.384     352.227    -129.676
  O      520.131     347.873    -132.501
  O      519.983     347.845    -129.932
  H      525.958     348.088    -129.010
  H      520.098     346.907    -132.358
  H      522.031     353.499    -128.610
  H      522.634     351.812    -130.360
  H      526.073     350.993    -131.128
  H      524.106     349.219    -129.558
  H      524.409     347.529    -131.274
  H      524.492     349.372    -133.398
  H      524.654     354.928    -126.418
  H      522.084     349.777    -133.109
  H      522.968     355.007    -126.856
  H      522.463     348.051    -132.954
  P      526.999     347.005    -131.614
  C      527.896     346.801    -134.017
  O      528.221     346.947    -132.643
  O      526.030     345.853    -132.190
  O      527.299     346.768    -130.172
  H      526.390     344.975    -131.957
  H      528.804     346.910    -134.607
  H      527.169     347.557    -134.316
  H      527.473     345.791    -134.201
  H      517.791     350.952    -131.477
  H      517.830     349.561    -130.420
  H      517.874     349.342    -132.153

 3  4  5  6  7  8  9  10  11  12  13  21  23  27  28  29  30  32 0
 6-311+G(2d,p)
 ****
 34  35 0
 6-311+G(2d,p)
 ****
 1  2  14  15  16  17  18  19  20  22  24  25  26 0
 3-21G
 ****
 31  33  36  37  38  39  40  41  42  43  44  45  46 0
 3-21G
 ****


