%nproc=1
%NoSave
%Mem=1900MB
#P OB98/GEN NMR

erre ene a

0 1
  C     -178.066       7.066     -58.473
  O     -177.980       6.342     -57.230
  P     -176.720       6.605     -56.262
  C     -175.435       4.368     -56.661
  O     -175.442       5.784     -56.775
  C     -174.055       3.852     -56.196
  O     -174.137       2.421     -55.896
  C     -172.932       4.036     -57.223
  O     -171.720       4.264     -56.481
  C     -172.881       2.677     -57.907
  O     -171.659       2.430     -58.578
  C     -173.135       1.760     -56.699
  N     -173.566       0.406     -57.059
  C     -172.594      -0.591     -57.122
  O     -171.390      -0.401     -56.958
  N     -173.054      -1.850     -57.416
  C     -174.349      -2.197     -57.686
  O     -174.690      -3.341     -57.973
  C     -175.323      -1.099     -57.631
  C     -174.897       0.131     -57.331
  O     -177.144       5.795     -54.947
  O     -176.459       8.039     -55.927
  H     -171.556       3.109     -59.274
  H     -176.973       6.343     -54.155
  H     -172.368      -2.589     -57.444
  H     -176.360      -1.332     -57.837
  H     -175.601       0.953     -57.270
  H     -172.222       1.697     -56.088
  H     -173.689       2.613     -58.647
  H     -173.117       4.863     -57.920
  H     -173.807       4.355     -55.254
  H     -175.674       3.924     -57.635
  H     -176.209       4.064     -55.944
  P     -171.130       5.755     -56.424
  C     -170.299       5.732     -58.906
  O     -171.119       6.332     -57.919
  O     -169.582       5.441     -56.131
  O     -171.757       6.631     -55.377
  H     -169.234       4.732     -56.697
  H     -170.314       4.637     -58.825
  H     -169.273       6.090     -58.798
  H     -170.674       6.011     -59.896
  H     -178.955       6.777     -58.993
  H     -177.211       6.842     -59.076
  H     -178.095       8.117     -58.273

 3  4  5  6  7  8  9  10  11  12  13  23  28  29  30  31  32 0
 6-311+G(2d,p)
 ****
 33  34 0
 6-311+G(2d,p)
 ****
 1  2  14  15  16  17  18  19  20  21  22  24  25  26 0
 3-21G
 ****
 27  35  36  37  38  39  40  41  42  43  44  45 0
 3-21G
 ****


