%nproc=1
%NoSave
%Mem=1900MB
#P OB98/GEN NMR

erre ene a

0 1
  C      103.642     619.427    -332.248
  O      103.889     618.563    -331.164
  P      103.661     619.063    -329.656
  C      101.885     617.287    -329.077
  O      102.147     618.678    -329.277
  C      101.599     617.017    -327.598
  O      100.500     617.839    -327.125
  C      101.157     615.597    -327.304
  O      102.100     614.564    -327.511
  C      100.589     615.745    -325.902
  O      101.623     615.734    -324.915
  C       99.930     617.148    -325.984
  N       98.476     617.063    -326.075
  C       97.816     616.650    -324.922
  O       98.390     616.364    -323.875
  N       96.454     616.541    -325.022
  C       95.715     616.751    -326.150
  O       94.495     616.591    -326.174
  C       96.466     617.167    -327.340
  C       97.789     617.305    -327.258
  O      104.019     620.486    -329.400
  O      104.505     618.015    -328.793
  H      102.153     616.542    -325.032
  H      104.224     617.086    -328.889
  H       95.961     616.228    -324.201
  H       95.905     617.356    -328.247
  H       98.369     617.606    -328.114
  H      100.184     617.736    -325.092
  H       99.900     614.930    -325.648
  H      100.311     615.355    -327.969
  H      102.488     617.297    -327.023
  H      102.760     616.710    -329.381
  H      101.045     616.975    -329.707
  P      101.804     613.264    -328.401
  C      102.401     614.231    -330.731
  O      101.398     613.739    -329.877
  O      100.982     612.188    -327.771
  O      103.293     612.698    -328.646
  H      103.254     611.725    -328.725
  H      101.948     614.558    -331.674
  H      103.137     613.448    -330.953
  H      102.908     615.095    -330.276
  H      103.850     618.917    -333.165
  H      104.272     620.288    -332.168
  H      102.617     619.732    -332.234

 3  4  5  6  7  8  9  10  11  12  13  23  28  29  30  31  32 0
 6-311+G(2d,p)
 ****
 33  34 0
 6-311+G(2d,p)
 ****
 1  2  14  15  16  17  18  19  20  21  22  24  25  26  27 0
 3-21G
 ****
 35  36  37  38  39  40  41  42  43  44  45 0
 3-21G
 ****


