%nproc=1
%NoSave
%Mem=1900MB
#P OB98/GEN NMR

erre ene a

0 1
  C      -73.936     -39.579    -326.776
  O      -72.566     -39.943    -326.661
  P      -71.604     -39.623    -327.909
  C      -71.285     -42.096    -328.633
  O      -71.833     -40.823    -328.949
  C      -72.214     -43.214    -329.099
  O      -73.588     -42.847    -328.862
  C      -72.123     -43.534    -330.583
  O      -71.033     -44.389    -330.882
  C      -73.439     -44.258    -330.804
  O      -73.334     -45.617    -330.343
  C      -74.396     -43.468    -329.899
  N      -78.823     -42.367    -332.208
  C      -78.355     -43.506    -331.658
  N      -77.158     -43.726    -331.069
  C      -76.395     -42.618    -331.121
  C      -76.726     -41.395    -331.684
  C      -78.010     -41.280    -332.240
  N      -78.499     -40.109    -332.777
  N      -75.685     -40.503    -331.547
  C      -74.750     -41.167    -330.903
  N      -75.135     -42.447    -330.616
  O      -70.143     -39.918    -327.322
  O      -71.723     -38.243    -328.456
  H      -72.810     -46.104    -331.007
  H      -69.472     -39.426    -327.834
  H      -79.033     -44.356    -331.682
  H      -73.788     -40.761    -330.620
  H      -75.123     -44.114    -329.396
  H      -73.735     -44.299    -331.857
  H      -72.104     -42.616    -331.187
  H      -71.995     -44.108    -328.499
  H      -71.151     -42.171    -327.548
  H      -79.481     -40.058    -332.984
  H      -77.968     -39.260    -332.620
  H      -70.303     -42.191    -329.114
  P      -69.737     -43.705    -331.543
  C      -71.122     -43.412    -333.724
  O      -70.301     -42.805    -332.744
  O      -69.020     -44.930    -332.284
  O      -68.841     -43.023    -330.569
  H      -68.064     -44.760    -332.374
  H      -71.659     -42.626    -334.265
  H      -71.854     -44.083    -333.270
  H      -70.502     -43.967    -334.434
  H      -74.453     -39.849    -325.879
  H      -74.373     -40.092    -327.608
  H      -74.013     -38.523    -326.928

 3  4  5  6  7  8  9  10  11  12  22  25  29  30  31  32 0
 6-311+G(2d,p)
 ****
 33  36  37 0
 6-311+G(2d,p)
 ****
 1  2  13  14  15  16  17  18  19  20  21  23  24  26 0
 3-21G
 ****
 27  28  34  35  38  39  40  41  42  43  44  45  46  47  48 0
 3-21G
 ****


