%nproc=1
%NoSave
%Mem=1900MB
#P OB98/GEN NMR

erre ene a

0 1
  C      630.709     205.678    -287.732
  O      631.520     204.965    -286.821
  H      629.705     205.247    -287.766
  H      630.640     206.718    -287.399
  H      631.155     205.656    -288.731
  P      631.662     203.388    -287.079
  C      633.572     201.665    -286.731
  O      633.221     203.031    -286.899
  C      634.985     201.421    -287.248
  O      635.028     201.568    -288.683
  C      636.041     202.386    -286.714
  O      636.455     202.046    -285.395
  C      637.153     202.176    -287.725
  O      637.888     200.983    -287.396
  C      636.373     201.965    -289.036
  N      638.939     204.959    -292.333
  C      639.299     203.837    -291.665
  N      638.571     203.105    -290.802
  C      637.336     203.621    -290.653
  C      636.835     204.751    -291.261
  C      637.691     205.445    -292.137
  N      637.324     206.595    -292.793
  N      635.526     204.968    -290.880
  C      635.241     203.981    -290.055
  N      636.312     203.145    -289.877
  O      631.431     203.244    -288.659
  O      630.717     202.526    -286.307
  H      637.232     200.262    -287.335
  H      630.955     202.407    -288.836
  H      640.304     203.476    -291.858
  H      634.287     203.839    -289.566
  H      636.801     201.145    -289.631
  H      637.863     203.001    -287.759
  H      635.687     203.424    -286.767
  H      635.255     200.380    -287.008
  H      632.870     201.040    -287.290
  H      637.899     206.927    -293.549
  H      636.377     206.949    -292.646
  H      633.506     201.415    -285.664
  P      636.960     203.238    -284.447
  C      637.588     203.419    -281.935
  O      637.040     202.612    -282.974
  O      635.677     204.201    -284.365
  O      638.170     203.965    -284.927
  H      635.961     205.118    -284.167
  H      637.577     202.872    -281.015
  H      637.003     204.309    -281.828
  H      638.596     203.682    -282.181

 6  7  8  9  10  11  12  13  14  15  25  28  32  33  34  35 0
 6-311+G(2d,p)
 ****
 36  39  40 0
 6-311+G(2d,p)
 ****
 1  2  3  4  5  16  17  18  19  20  21  22  23  24 0
 3-21G
 ****
 26  27  29  30  31  37  38  41  42  43  44  45  46  47  48 0
 3-21G
 ****


