%nproc=1
%NoSave
%Mem=1900MB
#P OB98/GEN NMR

erre ene a

0 1
  C      735.794     -78.956    -613.890
  O      737.155     -79.152    -613.527
  P      737.857     -80.515    -614.026
  C      739.167     -80.438    -611.771
  O      738.428     -81.229    -612.701
  C      739.494     -81.258    -610.520
  O      738.286     -81.503    -609.774
  C      740.087     -82.623    -610.812
  O      741.455     -82.504    -611.151
  C      739.854     -83.345    -609.493
  O      740.900     -83.091    -608.561
  C      738.522     -82.705    -609.003
  N      737.390     -83.621    -609.097
  C      737.335     -84.626    -608.114
  O      738.225     -84.716    -607.253
  N      736.296     -85.537    -608.170
  C      735.410     -85.448    -609.104
  N      734.399     -86.375    -609.106
  C      735.448     -84.421    -610.175
  C      736.451     -83.553    -610.110
  O      739.185     -79.986    -614.760
  O      737.017     -81.367    -614.917
  H      740.747     -83.680    -607.808
  H      739.471     -80.618    -615.446
  H      734.680     -84.391    -610.934
  H      736.565     -82.768    -610.841
  H      738.607     -82.398    -607.948
  H      739.789     -84.432    -609.629
  H      739.538     -83.115    -611.618
  H      740.169     -80.656    -609.890
  H      734.422     -87.083    -608.383
  H      738.578     -79.560    -611.488
  H      733.659     -86.381    -609.783
  H      740.081     -80.085    -612.264
  P      742.067     -83.580    -612.176
  C      743.858     -83.972    -610.374
  O      742.927     -84.574    -611.248
  O      743.216     -82.739    -612.910
  O      741.123     -84.220    -613.136
  H      743.598     -83.261    -613.636
  H      744.249     -84.748    -609.688
  H      743.366     -83.204    -609.776
  H      744.690     -83.549    -610.946
  H      735.452     -78.020    -613.499
  H      735.200     -79.749    -613.487
  H      735.707     -78.951    -614.956

 3  4  5  6  7  8  9  10  11  12  13  21  23  27  28  29  30  32 0
 6-311+G(2d,p)
 ****
 34  35 0
 6-311+G(2d,p)
 ****
 1  2  14  15  16  17  18  19  20  22  24  25  26 0
 3-21G
 ****
 31  33  36  37  38  39  40  41  42  43  44  45  46 0
 3-21G
 ****


