%nproc=1
%NoSave
%Mem=1900MB
#P OB98/GEN NMR

erre ene a

0 1
  C     -534.981     177.821    -571.727
  O     -535.551     177.588    -570.456
  H     -533.904     177.934    -571.620
  H     -535.387     178.750    -572.146
  H     -535.188     176.987    -572.403
  P     -537.040     177.012    -570.412
  C     -537.263     178.266    -568.137
  O     -537.508     177.061    -568.867
  C     -537.602     178.049    -566.665
  O     -539.044     177.992    -566.514
  C     -537.012     176.776    -566.051
  O     -536.630     177.042    -564.698
  C     -538.205     175.836    -566.028
  O     -538.067     174.801    -565.054
  C     -539.334     176.825    -565.725
  N     -543.394     174.753    -563.614
  C     -542.322     175.411    -563.045
  N     -542.292     175.470    -561.693
  N     -541.355     175.948    -563.737
  C     -541.527     175.828    -565.078
  C     -542.544     175.210    -565.769
  C     -543.589     174.594    -564.990
  O     -544.561     173.991    -565.446
  N     -542.314     175.257    -567.127
  C     -541.141     175.887    -567.247
  N     -540.630     176.257    -566.043
  O     -536.817     175.449    -570.676
  O     -537.997     177.611    -571.387
  H     -537.807     175.213    -564.204
  H     -536.935     175.252    -571.630
  H     -544.105     174.325    -563.037
  H     -540.640     176.079    -568.189
  H     -539.360     177.118    -564.660
  H     -538.343     175.378    -567.007
  H     -543.011     175.085    -561.097
  H     -536.165     176.359    -566.614
  H     -541.520     175.972    -561.264
  H     -537.253     178.934    -566.096
  H     -537.884     179.066    -568.548
  H     -536.205     178.546    -568.260
  P     -535.066     176.889    -564.322
  C     -534.935     175.742    -561.974
  O     -534.928     176.953    -562.716
  O     -534.445     178.295    -564.808
  O     -534.389     175.736    -564.972
  H     -533.547     178.150    -565.133
  H     -534.835     175.962    -560.932
  H     -534.118     175.126    -562.288
  H     -535.857     175.225    -562.143

 6  7  8  9  10  11  12  13  14  15  26  29  33  34 0
 6-311+G(2d,p)
 ****
 36  38  39  40  41 0
 6-311+G(2d,p)
 ****
 1  2  3  4  5  16  17  18  19  20  21  22  23  24  25 0
 3-21G
 ****
 27  28  30  31  32  35  37  42  43  44  45  46  47 0
 3-21G
 ****
 48  49 0
 3-21G
 ****


