%nproc=1
%NoSave
%Mem=1900MB
#P OB98/GEN NMR

erre ene a

0 1
  C     -272.092    -509.725     491.219
  O     -273.401    -510.028     490.787
  H     -271.444    -509.655     490.341
  H     -271.709    -510.508     491.871
  H     -272.070    -508.767     491.740
  P     -274.546    -510.240     491.890
  C     -274.440    -512.822     491.898
  O     -274.215    -511.620     492.640
  C     -273.967    -514.041     492.717
  O     -274.191    -515.229     491.905
  C     -272.475    -513.963     493.064
  O     -272.218    -514.142     494.454
  C     -271.842    -514.957     492.088
  O     -270.624    -515.519     492.539
  C     -272.965    -515.973     491.851
  N     -272.850    -516.678     490.573
  C     -272.567    -518.041     490.618
  O     -272.414    -518.700     491.637
  N     -272.465    -518.663     489.398
  C     -272.596    -518.064     488.169
  O     -272.502    -518.676     487.114
  C     -272.868    -516.621     488.188
  C     -272.978    -516.007     489.366
  O     -275.947    -510.118     491.396
  O     -274.221    -509.143     493.009
  H     -270.280    -516.084     491.807
  H     -274.862    -508.408     492.937
  H     -272.277    -519.647     489.410
  H     -272.965    -516.112     487.236
  H     -273.186    -514.935     489.427
  H     -272.985    -516.722     492.641
  H     -271.629    -514.432     491.147
  H     -272.071    -512.968     492.860
  H     -274.592    -514.132     493.608
  H     -273.877    -512.747     490.964
  H     -275.507    -512.920     491.667
  P     -271.468    -513.086     495.391
  C     -269.027    -514.051     495.603
  O     -269.912    -513.097     495.016
  O     -271.817    -513.139     496.842
  O     -271.958    -511.656     494.834
  H     -271.978    -511.046     495.598
  H     -268.037    -513.897     495.228
  H     -269.352    -515.040     495.354
  H     -269.028    -513.932     496.666

 6  7  8  9  10  11  12  13  14  15  16  26  31  32  33  34  35 0
 6-311+G(2d,p)
 ****
 36  37 0
 6-311+G(2d,p)
 ****
 1  2  3  4  5  17  18  19  20  21  22  23  24  25 0
 3-21G
 ****
 27  28  29  30  38  39  40  41  42  43  44  45 0
 3-21G
 ****


