%nproc=1
%NoSave
%Mem=1900MB
#P OB98/GEN NMR

erre ene a

0 1
  C     -356.522      47.423     393.637
  O     -355.757      46.281     394.008
  P     -356.549      44.914     394.281
  C     -354.967      43.368     392.901
  O     -355.505      43.678     394.170
  C     -353.441      43.184     392.968
  O     -352.780      44.471     393.153
  C     -352.982      42.270     394.113
  O     -351.786      41.607     393.712
  C     -352.651      43.253     395.222
  O     -351.811      42.664     396.213
  C     -352.020      44.379     394.398
  N     -349.151      47.695     396.901
  C     -348.818      46.472     396.349
  N     -347.521      46.087     396.457
  N     -349.677      45.688     395.756
  C     -350.925      46.226     395.690
  C     -351.379      47.418     396.200
  C     -350.422      48.267     396.884
  O     -350.660      49.349     397.400
  N     -352.730      47.592     395.957
  C     -353.080      46.498     395.312
  N     -352.031      45.652     395.084
  O     -357.443      44.746     392.967
  O     -357.386      44.926     395.515
  H     -350.931      42.500     395.788
  H     -358.375      44.912     393.170
  H     -348.441      48.259     397.362
  H     -354.087      46.261     394.984
  H     -350.965      44.163     394.133
  H     -353.575      43.608     395.708
  H     -346.797      46.673     396.856
  H     -353.723      41.516     394.423
  H     -347.245      45.227     396.018
  H     -353.091      42.777     392.007
  H     -355.195      44.174     392.188
  H     -355.458      42.467     392.514
  P     -351.796      39.998     393.700
  C     -350.659      40.052     391.357
  O     -350.653      39.549     392.674
  O     -353.154      39.652     392.912
  O     -351.746      39.352     395.050
  H     -353.475      38.754     393.171
  H     -349.903      40.830     391.271
  H     -351.640      40.481     391.076
  H     -350.431      39.255     390.663
  H     -355.868      48.257     393.488
  H     -357.221      47.652     394.414
  H     -357.052      47.218     392.730

 3  4  5  6  7  8  9  10  11  12  23  26  30  31 0
 6-311+G(2d,p)
 ****
 33  35  36  37  38 0
 6-311+G(2d,p)
 ****
 1  2  13  14  15  16  17  18  19  20  21  22  24  25 0
 3-21G
 ****
 27  28  29  32  34  39  40  41  42  43  44  45  46  47  48  49 0
 3-21G
 ****


