%nproc=1
%NoSave
%Mem=1900MB
#P OB98/GEN NMR

erre ene a

0 1
  C       -9.428     168.669    -269.534
  O       -9.855     169.757    -270.361
  P      -10.882     169.421    -271.548
  C      -13.055     169.530    -270.087
  O      -12.270     170.101    -271.122
  C      -14.542     169.667    -270.420
  O      -15.349     168.960    -269.449
  C      -15.051     171.102    -270.406
  O      -14.621     171.815    -271.553
  C      -16.555     170.869    -270.319
  O      -17.087     170.562    -271.616
  C      -16.634     169.626    -269.408
  N      -17.030     169.942    -268.042
  C      -18.328     169.590    -267.689
  O      -19.119     169.065    -268.472
  N      -18.698     169.880    -266.404
  C      -17.923     170.502    -265.469
  O      -18.306     170.724    -264.328
  C      -16.578     170.894    -265.913
  C      -16.196     170.602    -267.161
  O      -11.120     167.856    -271.317
  O      -10.361     169.791    -272.894
  H      -11.114     167.606    -270.376
  H      -18.047     170.417    -271.493
  H      -19.632     169.620    -266.123
  H      -15.943     171.411    -265.205
  H      -15.208     170.887    -267.507
  H      -17.359     168.907    -269.812
  H      -17.091     171.744    -269.942
  H      -14.702     171.610    -269.498
  H      -14.710     169.215    -271.405
  H      -12.852     170.039    -269.138
  H      -12.773     168.481    -269.967
  P      -13.806     173.176    -271.294
  C      -11.353     172.306    -271.049
  O      -12.324     172.930    -271.856
  O      -13.630     173.135    -269.704
  O      -14.496     174.396    -271.809
  H      -13.371     172.261    -269.374
  H      -10.555     171.920    -271.693
  H      -11.777     171.475    -270.478
  H      -10.922     173.040    -270.361
  H       -8.751     169.032    -268.789
  H       -8.936     167.935    -270.137
  H      -10.279     168.228    -269.058

 3  4  5  6  7  8  9  10  11  12  13  24  28  29  30  31  32 0
 6-311+G(2d,p)
 ****
 33  34 0
 6-311+G(2d,p)
 ****
 1  2  14  15  16  17  18  19  20  21  22  23  25  26  27 0
 3-21G
 ****
 35  36  37  38  39  40  41  42  43  44  45 0
 3-21G
 ****


