%nproc=1
%NoSave
%Mem=1900MB
#P OB98/GEN NMR

erre ene a

0 1
  C      477.281     207.295     227.760
  O      477.041     205.903     227.958
  P      478.303     204.909     228.004
  C      479.008     205.026     225.446
  O      478.544     204.277     226.551
  C      479.799     204.108     224.507
  O      480.973     203.602     225.182
  C      479.005     202.897     224.025
  O      478.233     203.190     222.879
  C      480.101     201.882     223.784
  O      480.762     202.146     222.538
  C      481.039     202.160     224.981
  N      480.766     201.489     226.262
  C      480.740     200.095     226.332
  O      480.929     199.360     225.363
  N      480.488     199.553     227.563
  C      480.439     200.235     228.747
  O      480.271     199.684     229.834
  C      480.624     201.682     228.649
  C      480.757     202.238     227.433
  O      477.774     203.673     228.874
  O      479.542     205.510     228.577
  H      481.185     203.024     222.616
  H      478.283     203.611     229.705
  H      480.397     198.548     227.611
  H      480.627     202.250     229.565
  H      480.894     203.308     227.356
  H      482.075     201.914     224.713
  H      479.688     200.869     223.700
  H      478.360     202.522     224.833
  H      480.129     204.698     223.647
  H      479.630     205.860     225.775
  H      478.147     205.462     224.918
  P      476.749     203.781     223.036
  C      475.735     201.417     222.963
  O      475.780     202.692     222.347
  O      476.552     205.187     222.587
  O      476.434     203.585     224.591
  H      476.622     204.413     225.093
  H      474.937     200.830     222.508
  H      475.538     201.524     224.034
  H      476.681     200.891     222.804
  H      476.349     207.820     227.753
  H      477.780     207.441     226.825
  H      477.895     207.668     228.553

 3  4  5  6  7  8  9  10  11  12  13  23  28  29  30  31  32 0
 6-311+G(2d,p)
 ****
 33  34 0
 6-311+G(2d,p)
 ****
 1  2  14  15  16  17  18  19  20  21  22  24  25  26  27 0
 3-21G
 ****
 35  36  37  38  39  40  41  42  43  44  45 0
 3-21G
 ****


