%nproc=1
%NoSave
%Mem=1900MB
#P OB98/GEN NMR

erre ene a

0 1
  C       57.704     -18.660      41.667
  O       56.633     -19.585      41.636
  H       58.316     -18.803      40.773
  H       58.324     -18.833      42.551
  H       57.317     -17.638      41.672
  P       55.596     -19.520      42.860
  C       56.952     -21.325      44.130
  O       56.455     -19.992      44.130
  C       57.718     -21.610      45.419
  O       58.799     -20.676      45.582
  C       56.878     -21.498      46.686
  O       56.118     -22.676      46.896
  C       57.968     -21.336      47.734
  O       58.538     -22.622      48.048
  C       59.009     -20.466      47.004
  N       59.946     -16.777      50.448
  C       59.984     -18.124      50.544
  N       59.681     -19.041      49.601
  C       59.306     -18.445      48.457
  C       59.222     -17.082      48.212
  C       59.572     -16.227      49.270
  N       59.544     -14.852      49.166
  N       58.799     -16.843      46.921
  C       58.683     -18.039      46.381
  N       58.943     -19.043      47.280
  O       54.297     -20.214      42.644
  O       55.493     -17.937      43.087
  H       57.838     -23.159      48.465
  H       56.363     -17.517      42.968
  H       60.300     -18.517      51.505
  H       58.431     -18.232      45.345
  H       60.033     -20.781      47.236
  H       57.587     -20.920      48.670
  H       56.255     -20.597      46.675
  H       58.162     -22.610      45.331
  H       57.603     -21.489      43.265
  H       59.643     -14.320      50.016
  H       59.146     -14.448      48.330
  H       56.090     -21.995      44.046
  P       54.585     -22.589      47.356
  C       55.186     -23.201      49.779
  O       54.597     -22.231      48.921
  O       53.750     -23.769      46.996
  O       54.039     -21.246      46.682
  H       53.119     -21.369      46.377
  H       55.138     -22.858      50.791
  H       56.208     -23.349      49.501
  H       54.654     -24.125      49.690

 6  7  8  9  10  11  12  13  14  15  25  28  32  33  34  35 0
 6-311+G(2d,p)
 ****
 36  39  40 0
 6-311+G(2d,p)
 ****
 1  2  3  4  5  16  17  18  19  20  21  22  23  24 0
 3-21G
 ****
 26  27  29  30  31  37  38  41  42  43  44  45  46  47 0
 3-21G
 ****
 48 0
 3-21G
 ****


