%nproc=1
%NoSave
%Mem=1900MB
#P OB98/GEN NMR

erre ene a

0 1
  C      195.408     -10.903      73.376
  O      194.217     -10.160      73.153
  P      192.996     -10.889      72.411
  C      191.926     -12.149      74.408
  O      192.699     -12.244      73.220
  C      190.536     -12.756      74.213
  O      189.787     -12.628      75.451
  C      189.704     -12.097      73.108
  O      188.886     -13.118      72.525
  C      188.819     -11.132      73.876
  O      187.657     -10.762      73.139
  C      188.551     -11.951      75.135
  N      184.585     -10.453      77.992
  C      184.672     -11.321      76.961
  N      185.765     -11.669      76.252
  C      186.850     -11.015      76.699
  C      186.907     -10.076      77.716
  C      185.703      -9.799      78.384
  N      185.611      -8.922      79.441
  N      188.194      -9.603      77.866
  C      188.902     -10.244      76.959
  N      188.136     -11.124      76.248
  O      193.669     -11.404      71.053
  O      191.812     -10.028      72.138
  H      187.155     -11.572      72.934
  H      193.308     -10.907      70.293
  H      183.743     -11.806      76.674
  H      189.958     -10.106      76.778
  H      187.779     -12.715      74.976
  H      189.379     -10.219      74.107
  H      190.299     -11.599      72.336
  H      190.653     -13.829      74.016
  H      191.812     -11.093      74.668
  H      184.747      -8.881      79.953
  H      186.468      -8.577      79.862
  H      192.448     -12.654      75.226
  P      188.601     -13.010      70.952
  C      189.979     -15.010      70.041
  O      189.885     -13.607      70.209
  O      188.692     -11.438      70.666
  O      187.282     -13.573      70.532
  H      188.135     -11.205      69.900
  H      190.496     -15.219      69.102
  H      188.995     -15.485      70.018
  H      190.560     -15.431      70.868
  H      196.125     -10.286      73.877
  H      195.808     -11.225      72.437
  H      195.187     -11.757      73.982

 3  4  5  6  7  8  9  10  11  12  22  25  29  30  31  32 0
 6-311+G(2d,p)
 ****
 33  36  37 0
 6-311+G(2d,p)
 ****
 1  2  13  14  15  16  17  18  19  20  21  23  24  26 0
 3-21G
 ****
 27  28  34  35  38  39  40  41  42  43  44  45  46  47  48 0
 3-21G
 ****


