%nproc=1
%NoSave
%Mem=1900MB
#P OB98/GEN NMR

erre ene a

0 1
  C      587.135      31.204     342.649
  O      586.948      30.284     341.591
  H      586.240      31.822     342.734
  H      587.990      31.852     342.441
  H      587.288      30.677     343.593
  P      588.132      29.251     341.255
  C      587.538      29.425     338.737
  O      587.679      28.575     339.862
  C      587.011      28.637     337.544
  O      588.009      27.721     337.040
  C      585.801      27.757     337.831
  O      584.592      28.485     337.997
  C      585.794      26.897     336.579
  O      585.279      27.649     335.474
  C      587.306      26.608     336.414
  N      587.712      25.339     337.023
  C      587.229      24.176     336.415
  O      586.502      24.234     335.428
  N      587.560      22.954     336.968
  C      588.289      22.912     338.038
  N      588.578      21.681     338.542
  C      588.800      24.115     338.727
  C      588.486      25.284     338.164
  O      588.496      28.295     342.347
  O      589.348      30.175     340.779
  H      585.836      28.448     335.386
  H      590.114      29.587     340.571
  H      589.377      24.020     339.631
  H      588.811      26.213     338.617
  H      587.585      26.598     335.351
  H      585.174      26.003     336.676
  H      585.985      27.105     338.706
  H      586.801      29.354     336.736
  H      588.213      20.866     338.056
  H      588.515      29.866     338.516
  H      589.076      21.547     339.415
  H      586.831      30.229     338.956
  P      583.964      28.532     339.478
  C      581.526      27.835     338.825
  O      582.402      28.853     339.289
  O      584.572      29.875     340.086
  O      584.248      27.328     340.319
  H      585.343      29.676     340.652
  H      580.531      28.223     338.760
  H      581.543      27.011     339.508
  H      581.844      27.504     337.858

 6  7  8  9  10  11  12  13  14  15  16  26  30  31  32  33  35 0
 6-311+G(2d,p)
 ****
 37  38 0
 6-311+G(2d,p)
 ****
 1  2  3  4  5  17  18  19  20  21  22  23  24  25 0
 3-21G
 ****
 27  28  29  34  36  39  40  41  42  43  44  45  46 0
 3-21G
 ****


