%nproc=1
%NoSave
%Mem=1900MB
#P OB98/GEN NMR

erre ene a

0 1
  C      254.377     283.633     217.199
  O      253.694     284.839     216.826
  P      253.883     285.559     215.401
  C      255.735     286.901     214.177
  O      255.372     286.167     215.340
  C      256.704     288.035     214.524
  O      256.004     289.095     215.228
  C      257.841     287.655     215.464
  O      258.835     286.873     214.815
  C      258.328     289.031     215.920
  O      259.250     289.604     214.974
  C      257.019     289.850     215.939
  N      256.575     290.180     217.286
  C      257.432     290.981     218.052
  O      258.541     291.302     217.615
  N      257.014     291.372     219.302
  C      255.897     290.926     219.787
  N      255.530     291.372     221.020
  C      255.031     289.976     219.063
  C      255.426     289.652     217.829
  O      252.813     286.554     215.075
  O      253.914     284.368     214.327
  H      253.611     284.705     213.463
  H      259.954     288.940     214.838
  H      254.123     289.593     219.519
  H      254.835     288.965     217.224
  H      257.144     290.776     215.364
  H      258.840     288.988     216.886
  H      257.433     287.106     216.323
  H      257.101     288.446     213.585
  H      256.145     292.034     221.484
  H      254.823     287.332     213.740
  H      254.672     291.100     221.473
  H      256.178     286.215     213.442
  P      259.158     285.433     215.457
  C      260.625     284.548     217.410
  O      260.074     285.678     216.754
  O      260.163     284.766     214.393
  O      257.955     284.576     215.689
  H      259.958     283.814     214.310
  H      261.555     284.850     217.909
  H      260.851     283.737     216.712
  H      259.919     284.192     218.164
  H      254.088     283.351     218.190
  H      255.434     283.798     217.169
  H      254.118     282.851     216.516

 3  4  5  6  7  8  9  10  11  12  13  24  27  28  29  30  32 0
 6-311+G(2d,p)
 ****
 34  35 0
 6-311+G(2d,p)
 ****
 1  2  14  15  16  17  18  19  20  21  22  23  25  26 0
 3-21G
 ****
 31  33  36  37  38  39  40  41  42  43  44  45  46 0
 3-21G
 ****


