%nproc=1
%NoSave
%Mem=1900MB
#P OB98/GEN NMR

erre ene a

0 1
  C      -65.482     200.196    -333.768
  O      -66.900     200.314    -333.607
  P      -67.534     201.742    -333.979
  C      -66.876     203.261    -331.981
  O      -66.599     202.877    -333.323
  C      -67.084     204.778    -331.878
  O      -65.948     205.496    -332.446
  C      -68.346     205.277    -332.604
  O      -68.864     206.370    -331.833
  C      -67.769     205.772    -333.928
  O      -68.658     206.622    -334.640
  C      -66.482     206.421    -333.416
  N      -64.992     209.811    -336.934
  C      -66.006     209.828    -336.038
  N      -66.340     208.880    -335.130
  C      -65.494     207.840    -335.214
  C      -64.418     207.681    -336.074
  C      -64.174     208.730    -336.969
  N      -63.157     208.717    -337.899
  N      -63.795     206.450    -335.860
  C      -64.547     205.855    -334.946
  N      -65.525     206.687    -334.465
  O      -68.874     201.798    -333.108
  O      -67.790     201.921    -335.443
  H      -69.447     206.116    -334.925
  H      -69.648     201.565    -333.657
  H      -66.636     210.718    -336.051
  H      -64.420     204.841    -334.591
  H      -66.674     207.370    -332.906
  H      -67.549     204.919    -334.572
  H      -69.121     204.512    -332.716
  H      -67.139     205.046    -330.812
  H      -66.049     202.975    -331.326
  H      -63.062     209.525    -338.502
  H      -62.534     207.926    -337.966
  H      -67.758     202.709    -331.624
  P      -70.373     206.269    -331.273
  C      -71.210     208.368    -332.492
  O      -71.270     206.958    -332.417
  O      -70.343     207.421    -330.158
  O      -70.798     204.928    -330.760
  H      -69.984     208.254    -330.518
  H      -71.803     208.696    -333.351
  H      -70.177     208.697    -332.621
  H      -71.635     208.816    -331.579
  H      -65.173     199.209    -333.493
  H      -64.991     200.911    -333.142
  H      -65.223     200.379    -334.790

 3  4  5  6  7  8  9  10  11  12  22  25  29  30  31  32 0
 6-311+G(2d,p)
 ****
 33  36  37 0
 6-311+G(2d,p)
 ****
 1  2  13  14  15  16  17  18  19  20  21  23  24  26 0
 3-21G
 ****
 27  28  34  35  38  39  40  41  42  43  44  45  46  47  48 0
 3-21G
 ****


