%nproc=1
%NoSave
%Mem=1900MB
#P OB98/GEN NMR

erre ene a

0 1
  C      444.022      67.461     363.269
  O      443.823      67.853     361.903
  P      444.496      67.097     360.661
  C      444.197      64.662     359.819
  O      443.553      65.852     360.265
  C      443.558      64.151     358.526
  O      442.171      63.794     358.757
  C      443.493      65.162     357.386
  O      444.760      65.386     356.789
  C      442.469      64.508     356.465
  O      443.082      63.530     355.610
  C      441.524      63.808     357.465
  N      440.215      64.434     357.541
  C      439.385      64.303     356.429
  O      439.799      63.748     355.405
  N      438.110      64.819     356.487
  C      437.742      65.494     357.530
  N      436.462      65.967     357.543
  C      438.629      65.776     358.671
  C      439.841      65.221     358.614
  O      445.923      66.720     360.879
  O      444.350      68.097     359.421
  H      445.053      67.924     358.771
  H      443.610      64.021     354.952
  H      438.294      66.380     359.503
  H      440.555      65.365     359.420
  H      441.399      62.754     357.193
  H      441.972      65.239     355.814
  H      443.088      66.110     357.766
  H      444.102      63.252     358.206
  H      435.872      65.745     356.748
  H      444.088      63.896     360.596
  H      436.063      66.485     358.315
  H      445.265      64.862     359.676
  P      445.145      66.901     356.439
  C      446.405      68.841     357.620
  O      446.013      67.478     357.657
  O      443.752      67.679     356.562
  O      445.751      67.089     355.085
  H      443.685      68.351     355.859
  H      446.532      69.190     358.650
  H      445.657      69.460     357.125
  H      447.360      68.929     357.098
  H      443.471      68.116     363.912
  H      445.063      67.519     363.509
  H      443.680      66.456     363.405

 3  4  5  6  7  8  9  10  11  12  13  24  27  28  29  30  32 0
 6-311+G(2d,p)
 ****
 34  35 0
 6-311+G(2d,p)
 ****
 1  2  14  15  16  17  18  19  20  21  22  23  25  26 0
 3-21G
 ****
 31  33  36  37  38  39  40  41  42  43  44  45  46 0
 3-21G
 ****


