%nproc=1
%NoSave
%Mem=1900MB
#P OB98/GEN NMR

erre ene a

0 1
  C      193.470    -292.845    -298.092
  O      194.640    -292.772    -297.268
  P      194.663    -293.661    -295.934
  C      193.932    -293.400    -293.457
  O      193.895    -292.863    -294.771
  C      192.559    -293.289    -292.765
  O      192.224    -291.896    -292.516
  C      191.410    -293.883    -293.585
  O      190.417    -294.372    -292.678
  C      190.857    -292.667    -294.306
  O      189.530    -292.898    -294.781
  C      190.988    -291.618    -293.205
  N      190.584    -286.743    -291.953
  C      190.500    -287.876    -291.166
  N      190.316    -287.677    -289.842
  N      190.594    -289.097    -291.635
  C      190.814    -289.136    -292.972
  C      190.906    -288.090    -293.860
  C      190.780    -286.749    -293.332
  O      190.827    -285.709    -293.987
  N      191.108    -288.535    -295.144
  C      191.124    -289.853    -295.028
  N      190.993    -290.261    -293.728
  O      196.204    -293.588    -295.482
  O      194.232    -295.076    -296.140
  H      189.606    -293.483    -295.572
  H      196.635    -294.448    -295.640
  H      190.496    -285.832    -291.541
  H      191.235    -290.546    -295.847
  H      190.170    -291.671    -292.478
  H      191.495    -292.420    -295.163
  H      190.295    -286.766    -289.410
  H      191.705    -294.686    -294.269
  H      190.297    -288.489    -289.237
  H      192.621    -293.789    -291.795
  H      194.683    -292.884    -292.857
  H      194.266    -294.442    -293.510
  P      189.687    -295.741    -293.071
  C      187.331    -296.313    -294.012
  O      188.323    -295.326    -293.802
  O      189.192    -296.323    -291.664
  O      190.540    -296.716    -293.811
  H      189.097    -297.293    -291.709
  H      186.529    -296.182    -293.279
  H      187.739    -297.329    -293.920
  H      186.918    -296.197    -295.013
  H      193.591    -292.206    -298.941
  H      192.617    -292.531    -297.528
  H      193.328    -293.853    -298.422

 3  4  5  6  7  8  9  10  11  12  23  26  30  31 0
 6-311+G(2d,p)
 ****
 33  35  36  37  38 0
 6-311+G(2d,p)
 ****
 1  2  13  14  15  16  17  18  19  20  21  22  24  25 0
 3-21G
 ****
 27  28  29  32  34  39  40  41  42  43  44  45  46  47  48  49 0
 3-21G
 ****


