%nproc=1
%NoSave
%Mem=1900MB
#P OB98/GEN NMR

erre ene a

0 1
  C     -540.361     545.290      25.326
  O     -541.501     544.734      25.950
  H     -539.849     545.930      26.049
  H     -540.647     545.894      24.466
  H     -539.669     544.502      25.010
  P     -542.428     543.747      25.083
  C     -542.002     541.312      25.830
  O     -542.750     542.498      26.041
  C     -542.267     540.323      26.956
  O     -541.663     540.778      28.189
  C     -543.753     540.101      27.262
  O     -544.303     539.181      26.337
  C     -543.656     539.549      28.683
  O     -543.249     538.171      28.641
  C     -542.555     540.416      29.284
  N     -545.877     542.427      32.553
  C     -545.739     541.131      32.111
  N     -546.652     540.227      32.573
  N     -544.810     540.734      31.276
  C     -544.024     541.735      30.841
  C     -544.069     543.069      31.190
  C     -545.072     543.489      32.159
  O     -545.217     544.616      32.585
  N     -543.143     543.812      30.487
  C     -542.511     542.917      29.752
  N     -543.023     541.650      29.918
  O     -541.909     543.360      23.739
  O     -543.832     544.514      24.994
  H     -542.983     537.921      29.552
  H     -543.881     545.060      24.188
  H     -546.620     542.667      33.185
  H     -541.688     543.137      29.084
  H     -541.952     539.874      30.030
  H     -544.616     539.581      29.209
  H     -547.525     540.526      32.984
  H     -544.303     541.042      27.286
  H     -546.587     539.285      32.238
  H     -541.765     539.369      26.698
  H     -540.937     541.587      25.805
  H     -542.263     540.857      24.875
  P     -545.867     538.812      26.378
  C     -546.609     540.880      25.005
  O     -546.483     539.457      25.043
  O     -546.571     539.212      27.641
  O     -545.928     537.249      26.075
  H     -545.847     536.680      26.884
  H     -547.030     541.176      24.067
  H     -545.644     541.327      25.120
  H     -547.248     541.203      25.800

 6  7  8  9  10  11  12  13  14  15  26  29  33  34 0
 6-311+G(2d,p)
 ****
 36  38  39  40  41 0
 6-311+G(2d,p)
 ****
 1  2  3  4  5  16  17  18  19  20  21  22  23  24  25 0
 3-21G
 ****
 27  28  30  31  32  35  37  42  43  44  45  46  47 0
 3-21G
 ****
 48  49 0
 3-21G
 ****


