%nproc=1
%NoSave
%Mem=1900MB
#P OB98/GEN NMR

erre ene a

0 1
  C     -357.343     -87.222    -241.654
  O     -356.080     -87.357    -241.031
  H     -357.967     -86.566    -241.043
  H     -357.831     -88.198    -241.734
  H     -357.228     -86.776    -242.645
  P     -355.021     -88.316    -241.758
  C     -354.764     -90.023    -239.829
  O     -355.294     -89.764    -241.123
  C     -355.035     -91.472    -239.422
  O     -356.449     -91.697    -239.299
  C     -354.522     -92.508    -240.413
  O     -353.142     -92.765    -240.191
  C     -355.376     -93.710    -240.042
  O     -354.815     -94.362    -238.884
  C     -356.725     -93.070    -239.678
  N     -360.821     -95.462    -241.642
  C     -359.952     -95.821    -240.673
  N     -358.855     -95.165    -240.238
  C     -358.695     -94.011    -240.913
  C     -359.500     -93.515    -241.927
  C     -360.612     -94.293    -242.289
  N     -361.498     -93.922    -243.281
  N     -359.023     -92.306    -242.385
  C     -357.984     -92.047    -241.615
  N     -357.721     -93.065    -240.733
  O     -353.604     -87.847    -241.742
  O     -355.677     -88.449    -243.214
  H     -355.509     -94.950    -238.529
  H     -356.643     -88.538    -243.145
  H     -360.164     -96.767    -240.180
  H     -357.400     -91.131    -241.644
  H     -357.188     -93.563    -238.816
  H     -355.419     -94.457    -240.836
  H     -354.731     -92.222    -241.448
  H     -354.590     -91.629    -238.427
  H     -355.211     -89.346    -239.093
  H     -362.146     -94.624    -243.603
  H     -361.262     -93.117    -243.845
  H     -353.689     -89.833    -239.865
  P     -352.254     -93.522    -241.295
  C     -351.348     -95.258    -239.628
  O     -352.157     -95.036    -240.777
  O     -350.959     -92.858    -241.607
  O     -353.217     -93.637    -242.566
  H     -352.694     -93.841    -243.364
  H     -351.360     -96.298    -239.379
  H     -351.732     -94.690    -238.806
  H     -350.344     -94.953    -239.835

 6  7  8  9  10  11  12  13  14  15  25  28  32  33  34  35 0
 6-311+G(2d,p)
 ****
 36  39  40 0
 6-311+G(2d,p)
 ****
 1  2  3  4  5  16  17  18  19  20  21  22  23  24 0
 3-21G
 ****
 26  27  29  30  31  37  38  41  42  43  44  45  46  47 0
 3-21G
 ****
 48 0
 3-21G
 ****


