%nproc=1
%NoSave
%Mem=1900MB
#P OB98/GEN NMR

erre ene a

0 1
  C      192.494    -357.616     349.911
  O      191.640    -357.984     348.841
  H      192.677    -358.499     350.528
  H      192.019    -356.852     350.528
  H      193.452    -357.251     349.529
  P      191.333    -356.909     347.692
  C      191.092    -358.938     346.115
  O      190.549    -357.680     346.523
  C      190.265    -359.490     344.949
  O      189.027    -360.062     345.437
  C      189.860    -358.436     343.921
  O      190.952    -358.096     343.085
  C      188.717    -359.151     343.211
  O      189.220    -360.084     342.235
  C      188.034    -359.890     344.386
  N      186.856    -359.200     344.892
  C      185.762    -359.113     344.014
  O      185.786    -359.556     342.864
  N      184.663    -358.464     344.500
  C      184.582    -357.816     345.702
  O      183.597    -357.167     346.053
  C      185.756    -357.911     346.566
  C      186.828    -358.596     346.134
  O      192.494    -356.094     347.240
  O      190.187    -355.990     348.339
  H      188.442    -360.580     341.909
  H      190.570    -355.134     348.608
  H      183.874    -358.377     343.878
  H      185.721    -357.425     347.534
  H      187.704    -358.671     346.757
  H      187.741    -360.906     344.078
  H      188.060    -358.460     342.697
  H      189.470    -357.553     344.432
  H      190.847    -360.297     344.470
  H      191.038    -359.637     346.961
  H      192.131    -358.798     345.821
  P      191.435    -356.566     342.990
  C      193.671    -357.252     341.908
  O      192.485    -356.460     341.786
  O      191.882    -355.959     344.281
  O      190.149    -355.806     342.411
  H      189.856    -355.131     343.057
  H      194.292    -357.099     341.050
  H      193.404    -358.286     341.976
  H      194.204    -356.963     342.790

 6  7  8  9  10  11  12  13  14  15  16  26  31  32  33  34  35 0
 6-311+G(2d,p)
 ****
 36  37 0
 6-311+G(2d,p)
 ****
 1  2  3  4  5  17  18  19  20  21  22  23  24  25 0
 3-21G
 ****
 27  28  29  30  38  39  40  41  42  43  44  45 0
 3-21G
 ****


