%nproc=1
%NoSave
%Mem=1900MB
#P OB98/GEN NMR

erre ene a

0 1
  C        4.679     314.055     226.204
  O        5.178     315.307     226.626
  H        4.558     314.074     225.118
  H        3.704     313.868     226.661
  H        5.374     313.252     226.468
  P        5.585     315.457     228.173
  C        7.646     316.927     227.589
  O        6.418     316.824     228.298
  C        7.827     318.344     227.034
  O        6.756     318.615     226.094
  C        7.796     319.429     228.113
  O        8.761     320.438     227.768
  C        6.400     320.013     228.000
  O        6.321     321.355     228.475
  C        6.111     319.841     226.507
  N        4.673     319.815     226.237
  C        4.022     321.050     226.191
  O        4.650     322.094     226.384
  N        2.662     321.078     225.992
  C        2.001     319.961     225.925
  N        0.654     320.053     225.755
  C        2.643     318.632     226.036
  C        3.968     318.635     226.178
  O        6.700     314.328     228.373
  O        4.460     315.327     229.145
  H        6.780     321.405     229.339
  H        6.681     313.967     229.283
  H        2.047     317.732     225.999
  H        4.522     317.709     226.275
  H        6.560     320.662     225.927
  H        5.702     319.405     228.593
  H        8.010     319.049     229.115
  H        8.767     318.374     226.468
  H        0.250     320.981     225.703
  H        7.633     316.216     226.752
  H        0.038     319.252     225.739
  H        8.476     316.669     228.255
  P        9.587     321.084     228.983
  C       11.904     320.130     228.279
  O       11.106     321.289     228.500
  O        9.685     319.886     230.044
  O        8.939     322.293     229.577
  H        9.110     320.069     230.808
  H       12.883     320.426     227.964
  H       11.452     319.525     227.521
  H       11.976     319.568     229.187

 6  7  8  9  10  11  12  13  14  15  16  26  30  31  32  33  35 0
 6-311+G(2d,p)
 ****
 37  38 0
 6-311+G(2d,p)
 ****
 1  2  3  4  5  17  18  19  20  21  22  23  24  25 0
 3-21G
 ****
 27  28  29  34  36  39  40  41  42  43  44  45  46 0
 3-21G
 ****


