%nproc=1
%NoSave
%Mem=1900MB
#P OB98/GEN NMR

erre ene a

0 1
  C      -14.431     -95.812     -21.598
  O      -15.828     -95.599     -21.729
  P      -16.838     -96.070     -20.576
  C      -18.554     -94.191     -20.951
  O      -18.302     -95.590     -21.028
  C      -19.537     -93.760     -22.038
  O      -18.878     -93.843     -23.324
  C      -20.786     -94.631     -22.105
  O      -21.905     -93.809     -22.445
  C      -20.522     -95.578     -23.265
  O      -21.752     -96.040     -23.849
  C      -19.659     -94.701     -24.178
  N      -19.287     -98.024     -28.075
  C      -20.354     -97.415     -27.515
  N      -20.382     -96.564     -26.467
  C      -19.138     -96.316     -26.025
  C      -17.953     -96.858     -26.500
  C      -18.056     -97.756     -27.575
  N      -16.965     -98.368     -28.154
  N      -16.875     -96.390     -25.773
  C      -17.399     -95.564     -24.893
  N      -18.761     -95.477     -25.012
  O      -16.451     -95.664     -19.195
  O      -16.913     -97.658     -20.730
  H      -21.513     -96.642     -24.585
  H      -16.959     -98.083     -19.852
  H      -21.315     -97.645     -27.966
  H      -16.843     -95.017     -24.146
  H      -20.274     -94.065     -24.828
  H      -19.970     -96.453     -22.906
  H      -20.984     -95.167     -21.170
  H      -19.804     -92.709     -21.871
  H      -17.605     -93.664     -21.093
  H      -17.123     -98.899     -28.996
  H      -16.044     -98.038     -27.899
  H      -18.941     -93.945     -19.957
  P      -23.223     -94.004     -21.536
  C      -23.957     -91.636     -22.331
  O      -24.299     -92.992     -22.157
  O      -22.922     -93.872     -20.078
  O      -23.702     -95.463     -21.993
  H      -23.383     -95.680     -22.898
  H      -24.829     -91.103     -22.727
  H      -23.137     -91.541     -23.048
  H      -23.671     -91.185     -21.376
  H      -13.930     -95.431     -22.463
  H      -14.237     -96.860     -21.506
  H      -14.073     -95.305     -20.726

 3  4  5  6  7  8  9  10  11  12  22  25  29  30  31  32 0
 6-311+G(2d,p)
 ****
 33  36  37 0
 6-311+G(2d,p)
 ****
 1  2  13  14  15  16  17  18  19  20  21  23  24  26 0
 3-21G
 ****
 27  28  34  35  38  39  40  41  42  43  44  45  46  47  48 0
 3-21G
 ****


