%nproc=1
%NoSave
%Mem=1900MB
#P OB98/GEN NMR

erre ene a

0 1
  C      572.031    -345.978    -887.610
  O      571.993    -344.602    -887.990
  P      572.753    -344.219    -889.370
  C      570.785    -342.912    -890.480
  O      571.617    -344.066    -890.510
  C      570.351    -342.534    -891.890
  O      571.489    -342.282    -892.740
  C      569.549    -343.618    -892.620
  O      568.195    -343.634    -892.200
  C      569.672    -343.154    -894.060
  O      568.693    -342.132    -894.330
  C      571.093    -342.554    -894.100
  N      573.695    -343.713    -898.300
  C      572.775    -342.716    -898.080
  N      572.515    -341.889    -899.130
  N      572.137    -342.536    -896.950
  C      572.523    -343.427    -895.980
  C      573.425    -344.459    -896.070
  C      574.075    -344.647    -897.350
  O      574.892    -345.543    -897.610
  N      573.553    -345.118    -894.880
  C      572.739    -344.487    -894.070
  N      572.075    -343.446    -894.690
  O      573.488    -345.575    -889.770
  O      573.707    -343.083    -889.230
  H      568.801    -341.453    -893.640
  H      574.273    -345.390    -890.310
  H      574.141    -343.812    -899.200
  H      572.592    -344.721    -893.030
  H      571.117    -341.604    -894.650
  H      569.496    -343.959    -894.780
  H      573.005    -341.923    -900.000
  H      570.026    -344.594    -892.490
  H      571.851    -341.124    -898.980
  H      569.763    -341.610    -891.830
  H      571.323    -342.069    -890.030
  H      569.910    -343.127    -889.840
  P      567.434    -345.050    -892.220
  C      567.083    -344.789    -889.670
  O      567.534    -345.610    -890.720
  O      568.444    -345.990    -893.060
  O      566.070    -345.014    -892.840
  H      567.946    -346.691    -893.520
  H      566.142    -344.278    -889.920
  H      567.856    -344.035    -889.440
  H      566.926    -345.406    -888.780
  H      571.500    -346.109    -886.690
  H      573.048    -346.285    -887.482
  H      571.573    -346.572    -888.373

 3  4  5  6  7  8  9  10  11  12  23  26  30  31  33  0
 6-311+G(2d,p)
 ****
 35  36  37  38 0
 6-311+G(2d,p)
 ****
 1  2  13  14  15  16  17  18  19  20  21  22  24  25  27  28  29 0
 3-21G
 ****
 32  34  39  40  41  42  43  44  45  46  47  48  49 0
 3-21G
 ****


