%nproc=1
%NoSave
%Mem=1900MB
#P OB98/GEN NMR

erre ene a

0 1
  C      302.107     237.203     -90.243
  O      303.202     236.773     -91.035
  P      304.521     236.264     -90.276
  C      304.696     234.265     -91.922
  O      305.347     235.377     -91.321
  C      305.630     233.513     -92.872
  O      305.635     234.190     -94.158
  C      307.076     233.421     -92.388
  O      307.590     232.136     -92.770
  C      307.790     234.494     -93.190
  O      309.188     234.220     -93.306
  C      307.008     234.449     -94.507
  N      307.133     235.690     -95.266
  C      307.998     235.686     -96.372
  O      308.667     234.671     -96.614
  N      308.128     236.815     -97.129
  C      307.521     237.906     -96.763
  N      307.676     239.008     -97.542
  C      306.702     238.005     -95.532
  C      306.539     236.863     -94.857
  O      303.943     235.177     -89.242
  O      305.292     237.342     -89.576
  H      309.299     233.411     -93.843
  H      304.471     235.160     -88.418
  H      306.258     238.950     -95.249
  H      305.930     236.837     -93.948
  H      307.357     233.630     -95.141
  H      307.674     235.466     -92.692
  H      307.175     233.541     -91.301
  H      305.214     232.510     -93.035
  H      308.252     238.923     -98.371
  H      303.836     234.622     -92.495
  H      307.247     239.900     -97.333
  H      304.334     233.598     -91.132
  P      308.440     231.308     -91.688
  C      307.413     229.112     -92.540
  O      308.604     229.846     -92.316
  O      307.331     231.055     -90.549
  O      309.656     231.949     -91.106
  H      307.741     230.601     -89.786
  H      307.658     228.202     -93.087
  H      306.703     229.704     -93.116
  H      306.952     228.830     -91.571
  H      301.305     237.512     -90.881
  H      302.412     238.025     -89.630
  H      301.778     236.397     -89.621

 3  4  5  6  7  8  9  10  11  12  13  21  23  27  28  29  30  32 0
 6-311+G(2d,p)
 ****
 34  35 0
 6-311+G(2d,p)
 ****
 1  2  14  15  16  17  18  19  20  22  24  25  26 0
 3-21G
 ****
 31  33  36  37  38  39  40  41  42  43  44  45  46 0
 3-21G
 ****


