%nproc=1
%NoSave
%Mem=1900MB
#P OB98/GEN NMR

erre ene a

0 1
  C      -33.911     126.830     -43.572
  O      -32.802     125.953     -43.461
  P      -31.336     126.575     -43.664
  C      -30.176     124.519     -42.582
  O      -30.309     125.345     -43.731
  C      -28.884     123.703     -42.645
  O      -29.012     122.700     -43.692
  C      -27.622     124.526     -42.951
  O      -26.547     123.919     -42.226
  C      -27.463     124.320     -44.447
  O      -26.176     124.645     -44.941
  C      -27.869     122.853     -44.563
  N      -26.382     120.115     -48.616
  C      -25.863     120.239     -47.374
  N      -26.319     120.982     -46.343
  C      -27.441     121.635     -46.691
  C      -28.075     121.622     -47.921
  C      -27.501     120.814     -48.916
  N      -28.029     120.696     -50.186
  N      -29.186     122.439     -47.911
  C      -29.221     122.942     -46.693
  N      -28.200     122.469     -45.916
  O      -31.025     127.235     -42.241
  O      -31.221     127.567     -44.780
  H      -25.502     124.079     -44.516
  H      -30.551     128.083     -42.342
  H      -24.960     119.667     -47.182
  H      -29.949     123.654     -46.332
  H      -27.082     122.180     -44.205
  H      -28.180     124.962     -44.973
  H      -27.707     125.576     -42.653
  H      -28.766     123.169     -41.694
  H      -31.019     123.824     -42.536
  H      -27.438     120.258     -50.877
  H      -28.731     121.373     -50.457
  H      -30.204     125.142     -41.682
  P      -25.366     124.849     -41.666
  C      -25.196     123.040     -39.851
  O      -24.486     123.855     -40.763
  O      -26.146     125.692     -40.551
  O      -24.647     125.671     -42.680
  H      -26.651     125.114     -39.952
  H      -24.492     122.350     -39.378
  H      -25.962     122.460     -40.375
  H      -25.657     123.660     -39.077
  H      -34.816     126.282     -43.414
  H      -33.924     127.267     -44.549
  H      -33.829     127.603     -42.837

 3  4  5  6  7  8  9  10  11  12  22  25  29  30  31  32 0
 6-311+G(2d,p)
 ****
 33  36  37 0
 6-311+G(2d,p)
 ****
 1  2  13  14  15  16  17  18  19  20  21  23  24  26 0
 3-21G
 ****
 27  28  34  35  38  39  40  41  42  43  44  45  46  47  48 0
 3-21G
 ****


