%nproc=1
%NoSave
%Mem=1900MB
#P OB98/GEN NMR

erre ene a

0 1
  C     -175.437    -250.096     -96.942
  O     -176.603    -249.493     -96.415
  H     -175.504    -250.081     -98.035
  H     -175.369    -251.134     -96.610
  H     -174.542    -249.544     -96.640
  P     -176.705    -249.252     -94.835
  C     -177.201    -250.749     -92.788
  O     -177.360    -250.574     -94.190
  C     -177.620    -252.163     -92.372
  O     -179.016    -252.362     -92.739
  C     -176.805    -253.272     -93.038
  O     -176.603    -254.335     -92.100
  C     -177.699    -253.744     -94.166
  O     -177.435    -255.097     -94.542
  C     -179.092    -253.531     -93.577
  N     -182.087    -255.959     -96.847
  C     -181.252    -256.455     -95.868
  N     -181.186    -257.797     -95.751
  N     -180.537    -255.700     -95.077
  C     -180.715    -254.371     -95.287
  C     -181.516    -253.759     -96.223
  C     -182.280    -254.605     -97.113
  O     -183.027    -254.219     -98.012
  N     -181.409    -252.388     -96.141
  C     -180.557    -252.182     -95.157
  N     -180.093    -253.353     -94.616
  O     -177.362    -247.968     -94.433
  O     -175.190    -249.314     -94.325
  H     -178.036    -255.307     -95.291
  H     -174.854    -248.427     -94.119
  H     -182.602    -256.582     -97.440
  H     -180.231    -251.206     -94.806
  H     -179.419    -254.380     -92.962
  H     -177.541    -253.111     -95.051
  H     -181.728    -258.441     -96.316
  H     -175.834    -252.913     -93.394
  H     -180.603    -258.194     -95.021
  H     -177.567    -252.232     -91.280
  H     -177.826    -250.012     -92.273
  H     -176.152    -250.575     -92.523
  P     -175.177    -255.065     -92.034
  C     -173.971    -257.029     -93.178
  O     -175.209    -256.358     -92.986
  O     -174.641    -255.304     -90.663
  O     -174.228    -254.054     -92.851
  H     -173.338    -254.064     -92.447
  H     -174.117    -257.868     -93.826
  H     -173.599    -257.368     -92.234
  H     -173.265    -256.356     -93.619

 6  7  8  9  10  11  12  13  14  15  26  29  33  34 0
 6-311+G(2d,p)
 ****
 36  38  39  40  41 0
 6-311+G(2d,p)
 ****
 1  2  3  4  5  16  17  18  19  20  21  22  23  24  25 0
 3-21G
 ****
 27  28  30  31  32  35  37  42  43  44  45  46  47 0
 3-21G
 ****
 48  49 0
 3-21G
 ****


