%nproc=1
%NoSave
%Mem=1900MB
#P OB98/GEN NMR

erre ene a

0 1
  C     -291.689     -21.308     288.641
  O     -290.521     -20.840     287.984
  P     -289.130     -20.710     288.769
  C     -288.086     -22.686     287.492
  O     -288.462     -22.175     288.766
  C     -286.623     -23.121     287.505
  O     -286.400     -23.985     288.647
  C     -286.215     -23.905     286.254
  O     -284.862     -23.569     285.925
  C     -286.249     -25.366     286.694
  O     -285.362     -26.168     285.898
  C     -285.864     -25.241     288.176
  N     -285.505     -30.212     289.421
  C     -284.772     -29.442     288.587
  N     -284.941     -28.136     288.288
  C     -285.959     -27.610     288.988
  C     -286.791     -28.274     289.877
  C     -286.541     -29.639     290.084
  N     -287.277     -30.423     290.946
  N     -287.750     -27.415     290.383
  C     -287.487     -26.249     289.825
  N     -286.406     -26.316     288.984
  O     -289.223     -20.073     290.114
  O     -288.187     -19.880     287.783
  H     -285.624     -27.103     286.035
  H     -287.631     -19.264     288.287
  H     -283.943     -29.937     288.094
  H     -288.043     -25.336     289.993
  H     -284.777     -25.214     288.307
  H     -287.266     -25.757     286.576
  H     -286.871     -23.717     285.398
  H     -285.989     -22.235     287.626
  H     -288.224     -21.894     286.748
  H     -286.949     -31.364     291.125
  H     -287.934     -29.960     291.572
  H     -288.739     -23.527     287.231
  P     -284.457     -23.746     284.367
  C     -283.796     -21.226     284.309
  O     -284.563     -22.269     283.750
  O     -285.252     -24.827     283.699
  O     -282.885     -24.041     284.488
  H     -282.517     -23.667     285.319
  H     -284.036     -20.292     283.776
  H     -282.732     -21.428     284.180
  H     -284.035     -21.098     285.368
  H     -292.506     -21.322     287.950
  H     -291.924     -20.658     289.458
  H     -291.518     -22.297     289.011

 3  4  5  6  7  8  9  10  11  12  22  25  29  30  31  32 0
 6-311+G(2d,p)
 ****
 33  36  37 0
 6-311+G(2d,p)
 ****
 1  2  13  14  15  16  17  18  19  20  21  23  24  26 0
 3-21G
 ****
 27  28  34  35  38  39  40  41  42  43  44  45  46  47  48 0
 3-21G
 ****


