%nproc=1
%NoSave
%Mem=1900MB
#P OB98/GEN NMR

erre ene a

0 1
  C      768.539    -867.411    -586.472
  O      768.817    -866.743    -587.692
  H      768.252    -866.663    -585.731
  H      769.425    -867.938    -586.117
  H      767.714    -868.113    -586.606
  P      769.301    -867.664    -588.917
  C      768.069    -869.314    -590.473
  O      767.938    -868.228    -589.557
  C      766.705    -869.949    -590.738
  O      766.091    -870.314    -589.474
  C      765.735    -869.011    -591.477
  O      764.961    -869.768    -592.403
  C      764.821    -868.496    -590.359
  O      763.556    -868.095    -590.847
  C      764.796    -869.701    -589.415
  N      761.016    -868.481    -586.191
  C      761.018    -868.973    -587.461
  N      762.069    -869.295    -588.232
  C      763.219    -869.086    -587.579
  C      763.393    -868.589    -586.295
  C      762.199    -868.259    -585.590
  N      762.201    -867.736    -584.315
  N      764.736    -868.490    -585.989
  C      765.363    -868.923    -587.058
  N      764.499    -869.300    -588.050
  O      770.330    -868.690    -588.588
  O      769.755    -866.563    -589.995
  H      762.964    -867.908    -590.085
  H      769.108    -865.837    -590.042
  H      760.029    -869.136    -587.900
  H      766.435    -868.990    -587.160
  H      764.040    -870.436    -589.698
  H      765.289    -867.637    -589.871
  H      766.251    -868.195    -591.986
  H      766.849    -870.881    -591.300
  H      768.742    -870.079    -590.053
  H      761.314    -867.548    -583.871
  H      763.083    -867.598    -583.827
  H      768.507    -868.927    -591.394
  P      765.527    -869.943    -593.904
  C      767.638    -871.000    -594.948
  O      766.725    -871.017    -593.857
  O      765.832    -868.695    -594.639
  O      764.364    -870.774    -594.608
  H      764.267    -870.458    -595.530
  H      768.383    -871.754    -594.802
  H      768.108    -870.041    -595.004
  H      767.110    -871.192    -595.858

 6  7  8  9  10  11  12  13  14  15  25  28  32  33  34  35 0
 6-311+G(2d,p)
 ****
 36  39  40 0
 6-311+G(2d,p)
 ****
 1  2  3  4  5  16  17  18  19  20  21  22  23  24 0
 3-21G
 ****
 26  27  29  30  31  37  38  41  42  43  44  45  46  47 0
 3-21G
 ****
 48 0
 3-21G
 ****


