%nproc=1
%NoSave
%Mem=1900MB
#P OB98/GEN NMR

erre ene a

0 1
  C      -93.264     314.579    -253.961
  O      -93.272     313.338    -253.284
  H      -92.239     314.960    -253.974
  H      -93.894     315.297    -253.431
  H      -93.608     314.463    -254.991
  P      -94.629     312.487    -253.241
  C      -94.399     310.209    -254.435
  O      -94.217     310.934    -253.226
  C      -93.076     310.093    -255.200
  O      -92.079     309.523    -254.314
  C      -93.164     309.203    -256.444
  O      -92.345     309.756    -257.473
  C      -92.579     307.885    -255.974
  O      -92.024     307.126    -257.047
  C      -91.539     308.348    -254.954
  N      -88.527     304.446    -253.839
  C      -88.476     305.340    -254.889
  N      -87.486     305.158    -255.792
  N      -89.323     306.326    -255.045
  C      -90.246     306.398    -254.057
  C      -90.402     305.576    -252.965
  C      -89.471     304.479    -252.815
  O      -89.476     303.648    -251.914
  N      -91.473     305.967    -252.200
  C      -91.961     307.021    -252.825
  N      -91.261     307.315    -253.966
  O      -95.637     312.854    -254.284
  O      -95.199     312.726    -251.767
  H      -91.332     307.686    -257.465
  H      -95.957     313.339    -251.780
  H      -87.857     303.701    -253.771
  H      -92.818     307.599    -252.505
  H      -90.584     308.611    -255.418
  H      -93.360     307.281    -255.496
  H      -86.787     304.436    -255.722
  H      -94.188     309.095    -256.805
  H      -87.409     305.817    -256.555
  H      -92.736     311.102    -255.461
  H      -95.132     310.742    -255.047
  H      -94.789     309.213    -254.202
  P      -93.044     310.319    -258.806
  C      -91.199     312.025    -259.337
  O      -91.904     310.880    -259.788
  O      -94.194     311.246    -258.583
  O      -93.520     308.978    -259.549
  H      -94.361     309.158    -260.015
  H      -90.470     312.306    -260.068
  H      -90.709     311.801    -258.413
  H      -91.886     312.832    -259.190

 6  7  8  9  10  11  12  13  14  15  26  29  33  34 0
 6-311+G(2d,p)
 ****
 36  38  39  40  41 0
 6-311+G(2d,p)
 ****
 1  2  3  4  5  16  17  18  19  20  21  22  23  24  25 0
 3-21G
 ****
 27  28  30  31  32  35  37  42  43  44  45  46  47 0
 3-21G
 ****
 48  49 0
 3-21G
 ****


