%nproc=1
%NoSave
%Mem=1900MB
#P OB98/GEN NMR

erre ene a

0 1
  C     -194.220     -19.925    -546.158
  O     -193.738     -19.938    -544.829
  H     -193.469     -19.486    -546.818
  H     -194.417     -20.954    -546.472
  H     -195.153     -19.356    -546.222
  P     -193.556     -18.518    -544.110
  C     -191.594     -16.821    -543.894
  O     -192.061     -18.044    -544.452
  C     -190.856     -15.997    -544.947
  O     -189.584     -16.645    -545.235
  C     -191.625     -15.861    -546.263
  O     -191.426     -14.539    -546.783
  C     -190.953     -16.875    -547.172
  O     -191.098     -16.548    -548.553
  C     -189.516     -16.833    -546.665
  N     -186.115     -18.953    -549.836
  C     -186.568     -17.689    -549.710
  N     -187.471     -17.201    -548.834
  C     -187.881     -18.174    -548.000
  C     -187.517     -19.510    -548.005
  C     -186.600     -19.903    -548.992
  N     -186.163     -21.199    -549.152
  N     -188.191     -20.199    -547.007
  C     -188.942     -19.291    -546.416
  N     -188.794     -18.058    -546.980
  O     -193.473     -18.928    -542.560
  O     -194.634     -17.513    -544.365
  H     -192.037     -16.339    -548.721
  H     -194.375     -19.088    -542.218
  H     -186.146     -16.971    -550.408
  H     -189.614     -19.491    -545.590
  H     -188.936     -15.999    -547.096
  H     -191.393     -17.870    -547.011
  H     -192.693     -16.051    -546.154
  H     -190.619     -15.019    -544.520
  H     -190.915     -17.048    -543.056
  H     -185.542     -21.399    -549.921
  H     -186.556     -21.919    -548.570
  H     -192.453     -16.251    -543.510
  P     -192.719     -13.583    -546.840
  C     -194.424     -12.790    -548.601
  O     -193.276     -13.569    -548.343
  O     -192.097     -12.118    -546.638
  O     -193.730     -13.893    -545.779
  H     -192.584     -11.636    -545.940
  H     -194.685     -12.871    -549.636
  H     -194.221     -11.767    -548.363
  H     -195.236     -13.142    -548.000

 6  7  8  9  10  11  12  13  14  15  25  28  32  33  34  35 0
 6-311+G(2d,p)
 ****
 36  39  40 0
 6-311+G(2d,p)
 ****
 1  2  3  4  5  16  17  18  19  20  21  22  23  24 0
 3-21G
 ****
 26  27  29  30  31  37  38  41  42  43  44  45  46  47 0
 3-21G
 ****
 48 0
 3-21G
 ****


