%nproc=1
%NoSave
%Mem=1900MB
#P OB98/GEN NMR

erre ene a

0 1
  C       69.086     250.619    -299.356
  O       67.881     251.318    -299.590
  P       67.233     252.223    -298.438
  C       65.073     250.902    -298.893
  O       65.637     252.174    -298.595
  C       63.549     250.960    -298.818
  O       63.106     251.122    -297.447
  C       62.936     252.131    -299.569
  O       62.983     251.947    -300.970
  C       61.537     252.159    -298.968
  O       60.694     251.172    -299.587
  C       61.818     251.776    -297.499
  N       61.774     252.927    -296.609
  C       60.533     253.200    -296.020
  O       59.539     252.541    -296.326
  N       60.453     254.225    -295.111
  C       61.480     254.985    -294.899
  N       61.362     255.945    -293.942
  C       62.765     254.829    -295.625
  C       62.847     253.776    -296.436
  O       67.809     253.594    -298.308
  O       67.479     251.376    -297.099
  H       67.881     251.960    -296.425
  H       59.875     251.129    -299.049
  H       63.569     255.532    -295.462
  H       63.753     253.570    -296.991
  H       61.095     251.034    -297.151
  H       61.044     253.129    -299.099
  H       63.464     253.055    -299.304
  H       63.154     250.009    -299.196
  H       60.474     256.012    -293.456
  H       65.452     250.173    -298.168
  H       62.168     256.359    -293.481
  H       65.398     250.590    -299.892
  P       63.636     253.131    -301.835
  C       62.211     252.171    -303.773
  O       63.436     252.765    -303.382
  O       65.210     252.934    -301.601
  O       63.201     254.501    -301.445
  H       65.648     253.804    -301.561
  H       62.089     252.305    -304.853
  H       61.363     252.633    -303.261
  H       62.233     251.102    -303.553
  H       69.359     250.074    -300.236
  H       68.951     249.938    -298.542
  H       69.861     251.316    -299.113

 3  4  5  6  7  8  9  10  11  12  13  24  27  28  29  30  32 0
 6-311+G(2d,p)
 ****
 34  35 0
 6-311+G(2d,p)
 ****
 1  2  14  15  16  17  18  19  20  21  22  23  25  26 0
 3-21G
 ****
 31  33  36  37  38  39  40  41  42  43  44  45  46 0
 3-21G
 ****


