%nproc=1
%NoSave
%Mem=1900MB
#P OB98/GEN NMR

erre ene a

0 1
  C      -49.153    -426.141     291.436
  O      -49.778    -425.906     290.189
  H      -48.608    -427.086     291.399
  H      -48.441    -425.335     291.630
  H      -49.889    -426.163     292.243
  P      -51.070    -426.791     289.836
  C      -52.890    -424.953     290.045
  O      -52.305    -426.117     290.610
  C      -54.215    -424.628     290.742
  O      -55.249    -425.481     290.173
  C      -54.202    -424.847     292.259
  O      -54.966    -423.803     292.873
  C      -54.942    -426.163     292.428
  O      -55.552    -426.294     293.711
  C      -55.943    -426.091     291.280
  N      -58.685    -430.027     292.980
  C      -58.589    -428.745     293.397
  N      -57.870    -427.742     292.851
  C      -57.262    -428.151     291.726
  C      -57.270    -429.423     291.172
  C      -58.012    -430.397     291.863
  N      -58.064    -431.719     291.491
  N      -56.472    -429.459     290.045
  C      -55.973    -428.247     289.934
  N      -56.420    -427.419     290.928
  O      -50.796    -428.140     290.664
  O      -51.289    -427.063     288.386
  H      -56.228    -426.999     293.663
  H      -50.265    -428.753     290.121
  H      -59.155    -428.490     294.291
  H      -55.267    -427.922     289.183
  H      -56.821    -425.479     291.519
  H      -54.243    -426.997     292.293
  H      -53.196    -424.875     292.698
  H      -54.486    -423.594     290.498
  H      -53.078    -425.128     288.984
  H      -58.533    -432.363     292.106
  H      -57.479    -432.030     290.725
  H      -52.195    -424.113     290.149
  P      -54.284    -423.000     294.078
  C      -53.662    -421.190     292.311
  O      -53.267    -421.923     293.467
  O      -53.309    -424.089     294.740
  O      -55.255    -422.456     295.076
  H      -53.240    -423.938     295.703
  H      -52.879    -420.517     292.030
  H      -54.550    -420.633     292.528
  H      -53.854    -421.869     291.507

 6  7  8  9  10  11  12  13  14  15  25  28  32  33  34  35 0
 6-311+G(2d,p)
 ****
 36  39  40 0
 6-311+G(2d,p)
 ****
 1  2  3  4  5  16  17  18  19  20  21  22  23  24 0
 3-21G
 ****
 26  27  29  30  31  37  38  41  42  43  44  45  46  47 0
 3-21G
 ****
 48 0
 3-21G
 ****


