%nproc=1
%NoSave
%Mem=1900MB
#P OB98/GEN NMR

erre ene a

0 1
  C      223.345    -125.219     304.703
  O      224.357    -125.061     305.678
  H      223.261    -124.291     304.130
  H      222.385    -125.429     305.181
  H      223.604    -126.033     304.020
  P      224.563    -126.288     306.695
  C      223.153    -125.123     308.556
  O      223.271    -126.208     307.647
  C      222.913    -125.655     309.964
  O      222.809    -124.570     310.910
  C      221.623    -126.454     310.119
  O      221.731    -127.780     309.626
  C      221.458    -126.422     311.626
  O      222.377    -127.349     312.232
  C      221.858    -124.959     311.938
  N      220.717    -124.046     311.960
  C      219.829    -124.178     313.037
  O      220.010    -125.036     313.898
  N      218.728    -123.354     313.090
  C      218.535    -122.471     312.162
  N      217.420    -121.690     312.258
  C      219.453    -122.284     311.024
  C      220.509    -123.095     310.985
  O      225.738    -125.786     307.658
  O      224.805    -127.623     306.073
  H      223.275    -126.989     312.098
  H      225.856    -126.425     308.403
  H      219.247    -121.542     310.267
  H      221.227    -123.020     310.176
  H      222.378    -124.895     312.903
  H      220.455    -126.700     311.953
  H      220.770    -125.935     309.662
  H      223.789    -126.256     310.253
  H      216.779    -121.884     313.015
  H      222.312    -124.497     308.240
  H      217.098    -121.108     311.497
  H      224.071    -124.523     308.546
  P      220.516    -128.350     308.743
  C      219.851    -129.697     310.862
  O      219.410    -128.903     309.768
  O      221.127    -129.682     308.105
  O      220.004    -127.407     307.696
  H      220.829    -129.801     307.182
  H      219.008    -129.990     311.453
  H      220.529    -129.129     311.464
  H      220.348    -130.569     310.492

 6  7  8  9  10  11  12  13  14  15  16  26  30  31  32  33  35 0
 6-311+G(2d,p)
 ****
 37  38 0
 6-311+G(2d,p)
 ****
 1  2  3  4  5  17  18  19  20  21  22  23  24  25 0
 3-21G
 ****
 27  28  29  34  36  39  40  41  42  43  44  45  46 0
 3-21G
 ****


