%nproc=1
%NoSave
%Mem=1900MB
#P OB98/GEN NMR

erre ene a

0 1
  C     -214.589     234.432     132.187
  O     -215.070     235.741     132.428
  P     -214.905     236.897     131.334
  C     -212.625     236.545     130.219
  O     -213.347     237.254     131.217
  C     -211.127     236.849     130.290
  O     -210.415     235.977     129.373
  C     -210.766     238.300     129.936
  O     -209.698     238.693     130.808
  C     -210.273     238.192     128.505
  O     -209.433     239.278     128.138
  C     -209.591     236.820     128.542
  N     -209.415     236.249     127.216
  C     -208.110     235.933     126.829
  O     -207.158     236.254     127.543
  N     -207.920     235.272     125.638
  C     -208.920     235.119     124.826
  N     -208.703     234.401     123.692
  C     -210.264     235.668     125.095
  C     -210.453     236.179     126.312
  O     -215.798     238.079     131.528
  O     -215.216     236.171     129.940
  H     -215.908     236.672     129.466
  H     -208.525     239.100     128.463
  H     -211.034     235.627     124.337
  H     -211.412     236.580     126.616
  H     -208.606     236.890     129.028
  H     -211.131     238.177     127.823
  H     -211.606     238.990     130.059
  H     -210.781     236.609     131.303
  H     -207.781     234.007     123.559
  H     -213.004     236.854     129.239
  H     -209.465     233.966     123.170
  H     -212.805     235.468     130.323
  P     -209.928     239.960     131.773
  C     -210.638     241.819     130.104
  O     -209.620     241.287     130.927
  O     -208.645     239.868     132.735
  O     -211.178     239.956     132.595
  H     -208.852     240.309     133.583
  H     -210.234     242.672     129.555
  H     -211.479     242.161     130.712
  H     -210.984     241.070     129.382
  H     -214.796     233.814     133.036
  H     -213.533     234.465     132.020
  H     -215.074     234.027     131.324

 3  4  5  6  7  8  9  10  11  12  13  24  27  28  29  30  32 0
 6-311+G(2d,p)
 ****
 34  35 0
 6-311+G(2d,p)
 ****
 1  2  14  15  16  17  18  19  20  21  22  23  25  26 0
 3-21G
 ****
 31  33  36  37  38  39  40  41  42  43  44  45  46 0
 3-21G
 ****


