%nproc=1
%NoSave
%Mem=1900MB
#P OB98/GEN NMR

erre ene a

0 1
  C       43.131      38.174    -107.652
  O       41.799      37.818    -108.023
  P       40.603      38.805    -107.615
  C       39.737      39.935    -105.461
  O       40.536      38.892    -106.015
  C       38.723      39.363    -104.453
  O       37.687      38.653    -105.181
  C       39.304      38.353    -103.459
  O       39.841      38.840    -102.234
  C       38.057      37.546    -103.093
  O       37.315      38.233    -102.067
  C       37.245      37.532    -104.386
  N       34.916      33.213    -105.846
  C       34.497      34.259    -105.100
  N       35.179      35.369    -104.756
  C       36.417      35.350    -105.279
  C       36.983      34.355    -106.061
  C       36.176      33.240    -106.344
  N       36.607      32.170    -107.096
  N       38.277      34.682    -106.405
  C       38.496      35.846    -105.822
  N       37.397      36.298    -105.143
  O       39.301      38.568    -108.301
  O       41.196      40.243    -108.008
  H       37.890      38.258    -101.278
  H       40.475      40.798    -108.363
  H       33.477      34.192    -104.726
  H       39.427      36.395    -105.868
  H       36.170      37.662    -104.206
  H       38.301      36.559    -102.694
  H       40.037      37.698    -103.949
  H       38.251      40.194    -103.910
  H       39.204      40.452    -106.263
  H       35.978      31.390    -107.214
  H       37.561      32.147    -107.425
  H       40.412      40.664    -105.011
  P       41.372      38.583    -101.834
  C       42.666      36.495    -100.926
  O       41.448      37.045    -101.385
  O       41.942      39.546    -100.850
  O       42.107      38.577    -103.258
  H       41.884      37.818    -103.821
  H       42.462      35.521    -100.473
  H       43.130      37.143    -100.179
  H       43.348      36.355    -101.773
  H       43.810      37.420    -107.993
  H       43.195      38.256    -106.587
  H       43.387      39.113    -108.098

 3  4  5  6  7  8  9  10  11  12  22  25  29  30  31  32 0
 6-311+G(2d,p)
 ****
 33  36  37 0
 6-311+G(2d,p)
 ****
 1  2  13  14  15  16  17  18  19  20  21  23  24  26 0
 3-21G
 ****
 27  28  34  35  38  39  40  41  42  43  44  45  46  47  48 0
 3-21G
 ****


