%nproc=1
%NoSave
%Mem=1900MB
#P OB98/GEN NMR

erre ene a

0 1
  C      720.384     304.383      24.797
  O      720.753     304.250      23.435
  H      720.964     305.197      25.239
  H      720.611     303.455      25.332
  H      719.319     304.614      24.883
  P      719.853     303.269      22.544
  C      721.744     301.457      22.387
  O      720.857     302.332      21.705
  C      722.284     300.401      21.425
  O      721.207     299.603      20.886
  C      722.959     300.968      20.193
  O      724.231     301.527      20.472
  C      723.032     299.726      19.310
  O      724.183     298.927      19.613
  C      721.724     298.985      19.687
  N      720.768     298.998      18.592
  C      720.620     297.782      17.911
  O      721.265     296.796      18.265
  N      719.781     297.734      16.830
  C      719.163     298.811      16.443
  N      718.367     298.703      15.346
  C      719.286     300.111      17.134
  C      720.102     300.134      18.193
  O      719.258     304.255      21.434
  O      718.822     302.508      23.305
  H      724.090     298.654      20.550
  H      719.926     304.814      21.010
  H      718.745     300.973      16.776
  H      720.260     301.045      18.758
  H      721.942     297.939      19.937
  H      723.102     299.991      18.252
  H      722.304     301.700      19.698
  H      722.957     299.739      21.985
  H      718.347     297.805      14.871
  H      721.241     300.976      23.235
  H      717.901     299.487      14.911
  H      722.567     302.060      22.790
  P      724.585     303.033      20.057
  C      726.463     302.465      18.389
  O      726.139     303.044      19.649
  O      724.203     304.083      21.046
  O      723.864     303.198      18.631
  H      724.164     302.568      17.950
  H      727.519     302.530      18.228
  H      725.950     302.992      17.612
  H      726.163     301.438      18.381

 6  7  8  9  10  11  12  13  14  15  16  26  30  31  32  33  35 0
 6-311+G(2d,p)
 ****
 37  38 0
 6-311+G(2d,p)
 ****
 1  2  3  4  5  17  18  19  20  21  22  23  24  25 0
 3-21G
 ****
 27  28  29  34  36  39  40  41  42  43  44  45  46 0
 3-21G
 ****


