%nproc=1
%NoSave
%Mem=1900MB
#P OB98/GEN NMR

erre ene a

0 1
  C     1117.395    -895.710    -561.436
  O     1116.150    -895.630    -562.107
  P     1115.460    -897.010    -562.576
  C     1116.287    -896.940    -565.080
  O     1115.207    -896.860    -564.150
  C     1115.770    -897.330    -566.454
  O     1115.151    -898.670    -566.402
  C     1114.682    -896.430    -567.015
  O     1115.231    -895.200    -567.521
  C     1114.044    -897.320    -568.075
  O     1114.842    -897.320    -569.283
  C     1114.091    -898.690    -567.403
  N     1112.830    -899.100    -566.797
  C     1111.747    -899.250    -567.666
  O     1111.847    -899.040    -568.889
  N     1110.551    -899.580    -567.084
  C     1110.325    -899.740    -565.754
  O     1109.213    -900.000    -565.291
  C     1111.497    -899.530    -564.876
  C     1112.677    -899.230    -565.406
  O     1114.017    -896.860    -561.914
  O     1116.244    -898.230    -562.155
  H     1113.754    -895.930    -561.797
  H     1114.393    -897.950    -569.921
  H     1109.779    -899.720    -567.705
  H     1111.332    -899.640    -563.809
  H     1113.539    -899.080    -564.784
  H     1114.403    -899.460    -568.117
  H     1113.034    -896.990    -568.359
  H     1113.943    -896.190    -566.240
  H     1116.611    -897.390    -567.151
  H     1116.994    -897.690    -564.734
  H     1116.796    -895.960    -565.130
  P     1114.405    -893.860    -567.248
  C     1115.017    -893.090    -569.658
  O     1114.937    -892.780    -568.297
  O     1115.018    -893.380    -565.845
  O     1112.906    -894.070    -567.236
  H     1115.968    -893.490    -565.805
  H     1115.060    -892.140    -570.240
  H     1114.171    -893.660    -570.003
  H     1115.944    -893.650    -569.864
  H     1117.730    -894.725    -561.187
  H     1118.114    -896.181    -562.073
  H     1117.281    -896.285    -560.541

 3  4  5  6  7  8  9  10  11  12  13  24  28  29  30  31  32 0
 6-311+G(2d,p)
 ****
 33  34 0
 6-311+G(2d,p)
 ****
 1  2  14  15  16  17  18  19  20  21  22  23  25  26  27 0
 3-21G
 ****
 35  36  37  38  39  40  41  42  43  44  45 0
 3-21G
 ****


