%nproc=1
%NoSave
%Mem=1900MB
#P OB98/GEN NMR

erre ene a

0 1
  C     -152.839      25.851      11.030
  O     -153.387      24.927      10.112
  H     -152.771      26.829      10.546
  H     -151.837      25.536      11.332
  H     -153.484      25.935      11.908
  P     -153.519      23.407      10.606
  C     -156.104      23.655      10.543
  O     -154.961      23.272      11.294
  C     -157.367      23.289      11.312
  O     -158.510      23.955      10.726
  C     -157.706      21.805      11.284
  O     -156.917      21.056      12.190
  C     -159.175      21.836      11.667
  O     -159.346      21.895      13.092
  C     -159.667      23.138      10.996
  N     -160.445      22.875       9.789
  C     -161.799      23.178       9.867
  O     -162.330      23.636      10.879
  N     -162.541      22.897       8.752
  C     -162.075      22.322       7.606
  O     -162.805      22.030       6.669
  C     -160.630      22.038       7.576
  C     -159.894      22.315       8.656
  O     -152.499      23.336      11.838
  O     -153.221      22.378       9.568
  H     -151.677      22.888      11.563
  H     -159.005      22.767      13.371
  H     -163.527      23.098       8.795
  H     -160.226      21.587       6.678
  H     -158.829      22.094       8.662
  H     -160.300      23.708      11.688
  H     -159.700      20.946      11.323
  H     -157.616      21.415      10.262
  H     -157.258      23.641      12.347
  H     -156.103      23.126       9.584
  H     -156.060      24.732      10.351
  P     -156.981      19.455      12.120
  C     -154.959      19.570      10.446
  O     -156.226      19.028      10.768
  O     -158.527      19.221      11.791
  O     -156.489      18.779      13.353
  H     -158.900      19.903      11.210
  H     -154.624      19.165       9.514
  H     -154.258      19.320      11.215
  H     -155.036      20.634      10.366

 6  7  8  9  10  11  12  13  14  15  16  27  31  32  33  34  35 0
 6-311+G(2d,p)
 ****
 36  37 0
 6-311+G(2d,p)
 ****
 1  2  3  4  5  17  18  19  20  21  22  23  24  25 0
 3-21G
 ****
 26  28  29  30  38  39  40  41  42  43  44  45 0
 3-21G
 ****


