%nproc=1
%NoSave
%Mem=1900MB
#P OB98/GEN NMR

erre ene a

0 1
  C      274.015     367.251    -341.730
  O      272.904     368.038    -342.110
  P      272.875     368.944    -343.429
  C      270.664     368.043    -344.432
  O      272.065     368.144    -344.563
  C      269.900     369.040    -345.316
  O      270.205     368.786    -346.703
  C      268.389     368.844    -345.157
  O      267.689     369.441    -344.081
  C      267.804     369.136    -346.536
  O      267.286     370.462    -346.642
  C      268.997     368.957    -347.471
  N      266.468     367.013    -351.425
  C      266.509     368.317    -350.964
  N      265.600     369.160    -351.524
  N      267.322     368.738    -350.045
  C      268.105     367.759    -349.521
  C      268.172     366.443    -349.887
  C      267.287     365.984    -350.948
  O      267.163     364.827    -351.313
  N      269.010     365.718    -349.081
  C      269.435     366.592    -348.196
  N      268.876     367.832    -348.387
  O      274.148     369.638    -343.795
  O      271.816     370.083    -343.001
  H      266.512     370.531    -346.052
  H      272.090     370.921    -343.423
  H      265.759     366.720    -352.084
  H      270.103     366.368    -347.369
  H      269.141     369.852    -348.092
  H      266.973     368.457    -346.759
  H      264.867     368.832    -352.124
  H      268.225     367.771    -345.004
  H      265.489     370.073    -351.094
  H      270.235     370.060    -345.124
  H      270.412     368.185    -343.381
  H      270.340     367.026    -344.701
  P      267.287     368.743    -342.696
  C      269.443     369.393    -341.488
  O      268.622     368.323    -341.931
  O      266.671     367.331    -343.140
  O      266.299     369.511    -341.879
  H      266.083     366.988    -342.438
  H      270.448     369.018    -341.266
  H      269.017     369.837    -340.576
  H      269.529     370.177    -342.256
  H      273.794     366.739    -340.817
  H      274.867     367.882    -341.587
  H      274.225     366.536    -342.498

 3  4  5  6  7  8  9  10  11  12  23  26  30  31 0
 6-311+G(2d,p)
 ****
 33  35  36  37  38 0
 6-311+G(2d,p)
 ****
 1  2  13  14  15  16  17  18  19  20  21  22  24  25 0
 3-21G
 ****
 27  28  29  32  34  39  40  41  42  43  44  45  46  47  48  49 0
 3-21G
 ****


