%nproc=1
%NoSave
%Mem=1900MB
#P OB98/GEN NMR

erre ene a

0 1
  C     -337.173    -423.243     241.658
  O     -337.271    -423.217     240.247
  H     -337.249    -422.229     242.052
  H     -337.995    -423.841     242.057
  H     -336.225    -423.693     241.971
  P     -336.011    -422.656     239.426
  C     -336.166    -424.233     237.372
  O     -335.461    -423.884     238.551
  C     -337.302    -425.210     237.687
  O     -338.198    -424.583     238.663
  C     -338.151    -425.619     236.465
  O     -338.492    -426.997     236.588
  C     -339.415    -424.784     236.616
  O     -340.544    -425.372     235.980
  C     -339.536    -424.718     238.146
  N     -344.342    -423.096     238.422
  C     -343.818    -424.324     238.253
  N     -342.513    -424.669     238.236
  C     -341.725    -423.619     238.508
  C     -342.122    -422.308     238.704
  C     -343.510    -422.054     238.645
  N     -344.056    -420.781     238.761
  N     -341.010    -421.497     238.900
  C     -339.978    -422.301     238.786
  N     -340.358    -423.594     238.545
  O     -334.906    -422.490     240.574
  O     -336.239    -421.385     238.682
  H     -340.702    -426.252     236.379
  H     -334.987    -421.607     240.984
  H     -344.528    -425.130     238.078
  H     -338.939    -422.001     238.829
  H     -339.977    -425.628     238.574
  H     -339.254    -423.789     236.190
  H     -337.655    -425.441     235.497
  H     -336.873    -426.090     238.156
  H     -335.477    -424.704     236.659
  H     -345.044    -420.693     238.581
  H     -343.422    -419.996     238.808
  H     -336.573    -423.316     236.905
  P     -337.316    -428.067     236.341
  C     -337.322    -429.407     238.572
  O     -336.667    -428.454     237.760
  O     -336.161    -427.196     235.636
  O     -337.718    -429.236     235.497
  H     -335.654    -427.750     235.011
  H     -336.765    -429.550     239.474
  H     -337.393    -430.336     238.045
  H     -338.304    -429.057     238.811

 6  7  8  9  10  11  12  13  14  15  25  28  32  33  34  35 0
 6-311+G(2d,p)
 ****
 36  39  40 0
 6-311+G(2d,p)
 ****
 1  2  3  4  5  16  17  18  19  20  21  22  23  24 0
 3-21G
 ****
 26  27  29  30  31  37  38  41  42  43  44  45  46  47 0
 3-21G
 ****
 48 0
 3-21G
 ****


