%nproc=1
%NoSave
%Mem=1900MB
#P OB98/GEN NMR

erre ene a

0 1
  C      266.024     134.206     498.291
  O      264.748     133.696     497.925
  P      263.671     133.512     499.109
  C      263.274     130.932     498.918
  O      263.849     132.009     499.644
  C      263.616     129.605     499.604
  O      265.052     129.448     499.686
  C      263.095     129.482     501.022
  O      261.733     129.093     501.022
  C      264.032     128.431     501.607
  O      263.619     127.104     501.224
  C      265.370     128.802     500.954
  N      269.214     128.961     504.231
  C      268.509     127.876     503.744
  N      268.914     126.652     504.158
  N      267.496     127.981     502.920
  C      267.194     129.261     502.607
  C      267.810     130.421     503.035
  C      268.958     130.286     503.898
  O      269.671     131.205     504.284
  N      267.206     131.536     502.520
  C      266.249     131.055     501.751
  N      266.212     129.670     501.751
  O      262.271     133.490     498.320
  O      263.713     134.562     500.177
  H      262.648     127.061     501.189
  H      261.847     134.365     498.358
  H      269.999     128.818     504.849
  H      265.572     131.650     501.155
  H      265.980     127.915     500.710
  H      264.056     128.453     502.701
  H      269.674     126.502     504.803
  H      263.225     130.430     501.565
  H      268.407     125.852     503.812
  H      263.229     128.793     498.974
  H      263.674     130.930     497.897
  H      262.181     131.073     498.872
  P      260.953     129.096     502.428
  C      260.073     126.655     502.261
  O      260.898     127.582     502.940
  O      259.442     129.414     502.012
  O      261.475     130.092     503.419
  H      259.028     129.973     502.697
  H      260.512     125.654     502.344
  H      259.968     126.913     501.201
  H      259.078     126.651     502.726
  H      266.642     134.280     497.420
  H      266.482     133.547     498.998
  H      265.908     135.175     498.730

 3  4  5  6  7  8  9  10  11  12  23  26  30  31 0
 6-311+G(2d,p)
 ****
 33  35  36  37  38 0
 6-311+G(2d,p)
 ****
 1  2  13  14  15  16  17  18  19  20  21  22  24  25 0
 3-21G
 ****
 27  28  29  32  34  39  40  41  42  43  44  45  46  47  48  49 0
 3-21G
 ****


