%nproc=1
%NoSave
%Mem=1900MB
#P OB98/GEN NMR

erre ene a

0 1
  C      195.004      60.299     649.738
  O      193.587      60.103     649.748
  P      192.996      58.938     648.831
  C      192.844      59.893     646.420
  O      193.609      59.161     647.359
  C      192.885      59.225     645.055
  O      194.245      59.193     644.533
  C      192.437      57.763     645.058
  O      191.027      57.630     645.026
  C      193.042      57.262     643.747
  O      192.216      57.660     642.638
  C      194.384      58.017     643.714
  N      196.954      53.679     643.082
  C      195.980      54.275     642.286
  N      195.601      53.569     641.192
  N      195.432      55.434     642.520
  C      195.914      56.017     643.661
  C      196.865      55.550     644.533
  C      197.450      54.254     644.248
  O      198.280      53.658     644.952
  N      197.087      56.427     645.562
  C      196.272      57.434     645.323
  N      195.500      57.204     644.189
  O      191.455      59.339     648.656
  O      193.147      57.553     649.391
  H      192.640      57.312     641.825
  H      190.933      58.570     648.347
  H      197.337      52.790     642.860
  H      196.185      58.327     645.919
  H      194.634      58.346     642.697
  H      193.140      56.181     643.700
  H      195.940      52.638     640.973
  H      192.883      57.205     645.898
  H      194.849      53.934     640.613
  H      192.278      59.810     644.350
  H      193.244      60.910     646.345
  H      191.807      59.970     646.771
  P      190.372      56.586     646.067
  C      189.872      54.569     644.512
  O      190.715      55.143     645.483
  O      188.796      56.748     645.793
  O      190.737      56.848     647.495
  H      188.302      56.517     646.591
  H      190.378      53.730     644.040
  H      189.610      55.297     643.733
  H      188.946      54.210     644.989
  H      195.257      61.106     650.393
  H      195.325      60.532     648.744
  H      195.490      59.405     650.069

 3  4  5  6  7  8  9  10  11  12  23  26  30  31 0
 6-311+G(2d,p)
 ****
 33  35  36  37  38 0
 6-311+G(2d,p)
 ****
 1  2  13  14  15  16  17  18  19  20  21  22  24  25 0
 3-21G
 ****
 27  28  29  32  34  39  40  41  42  43  44  45  46  47  48  49 0
 3-21G
 ****


