%nproc=1
%NoSave
%Mem=1900MB
#P OB98/GEN NMR

erre ene a

0 1
  C      447.861     146.532    -697.782
  O      448.769     145.468    -698.003
  H      447.006     146.176    -697.194
  H      448.372     147.319    -697.226
  H      447.515     146.941    -698.735
  P      448.185     144.195    -698.802
  C      447.653     142.662    -696.784
  O      447.132     143.478    -697.822
  C      447.319     141.197    -697.043
  O      448.126     140.381    -696.150
  C      445.830     140.841    -696.805
  O      445.300     140.123    -697.927
  C      445.866     139.910    -695.605
  O      444.863     138.893    -695.666
  C      447.275     139.328    -695.669
  N      448.517     135.160    -692.994
  C      448.465     135.382    -694.329
  N      448.233     136.545    -694.979
  C      448.055     137.551    -694.102
  C      448.096     137.478    -692.718
  C      448.329     136.216    -692.153
  N      448.313     135.975    -690.805
  N      447.855     138.733    -692.157
  C      447.638     139.522    -693.179
  N      447.721     138.853    -694.376
  O      449.432     143.186    -698.826
  O      447.699     144.500    -700.174
  H      444.997     138.316    -694.881
  H      449.675     143.017    -699.757
  H      448.648     134.519    -694.954
  H      447.352     140.570    -693.114
  H      447.341     138.493    -696.387
  H      445.724     140.494    -694.690
  H      445.216     141.728    -696.601
  H      447.610     140.941    -698.073
  H      447.212     142.971    -695.820
  H      448.366     135.019    -690.491
  H      448.064     136.732    -690.183
  H      448.740     142.807    -696.734
  P      443.858     140.621    -698.451
  C      442.497     138.794    -697.173
  O      442.757     140.187    -697.358
  O      443.565     139.641    -699.697
  O      443.819     142.046    -698.874
  H      443.410     140.164    -700.510
  H      441.748     138.668    -696.420
  H      443.396     138.301    -696.868
  H      442.152     138.370    -698.093

 6  7  8  9  10  11  12  13  14  15  25  28  32  33  34  35 0
 6-311+G(2d,p)
 ****
 36  39  40 0
 6-311+G(2d,p)
 ****
 1  2  3  4  5  16  17  18  19  20  21  22  23  24 0
 3-21G
 ****
 26  27  29  30  31  37  38  41  42  43  44  45  46  47  48 0
 3-21G
 ****


