%nproc=1
%NoSave
%Mem=1900MB
#P OB98/GEN NMR

erre ene a

0 1
  C      -59.736    -668.729    -315.717
  O      -60.707    -669.403    -316.498
  P      -60.444    -670.960    -316.833
  C      -62.991    -671.421    -316.582
  O      -61.668    -671.772    -316.197
  C      -64.010    -672.186    -315.740
  O      -63.834    -671.879    -314.346
  C      -65.466    -671.841    -316.046
  O      -65.952    -672.527    -317.186
  C      -66.160    -672.345    -314.788
  O      -66.340    -673.763    -314.866
  C      -65.129    -671.988    -313.704
  N      -68.783    -669.306    -311.432
  C      -68.780    -670.626    -311.840
  N      -69.935    -671.312    -311.677
  N      -67.745    -671.219    -312.360
  C      -66.660    -670.411    -312.491
  C      -66.547    -669.084    -312.115
  C      -67.715    -668.433    -311.540
  O      -67.784    -667.257    -311.221
  N      -65.297    -668.601    -312.382
  C      -64.645    -669.629    -312.899
  N      -65.445    -670.736    -313.025
  O      -59.213    -671.344    -315.885
  O      -60.160    -671.239    -318.273
  H      -66.902    -673.936    -315.647
  H      -58.793    -672.167    -316.199
  H      -69.621    -668.891    -311.047
  H      -63.609    -669.615    -313.219
  H      -65.055    -672.768    -312.928
  H      -67.146    -671.897    -314.648
  H      -70.793    -670.891    -311.344
  H      -65.610    -670.761    -316.141
  H      -69.986    -672.265    -312.026
  H      -63.839    -673.260    -315.880
  H      -63.136    -671.680    -317.649
  H      -63.143    -670.343    -316.462
  P      -65.632    -671.871    -318.625
  C      -64.537    -674.160    -319.182
  O      -64.428    -672.750    -319.230
  O      -64.928    -670.483    -318.245
  O      -66.820    -671.690    -319.506
  H      -65.061    -669.822    -318.953
  H      -63.774    -674.592    -319.857
  H      -65.513    -674.497    -319.511
  H      -64.330    -674.525    -318.163
  H      -60.037    -667.712    -315.574
  H      -58.793    -668.754    -316.221
  H      -59.645    -669.211    -314.766

 3  4  5  6  7  8  9  10  11  12  23  26  30  31 0
 6-311+G(2d,p)
 ****
 33  35  36  37  38 0
 6-311+G(2d,p)
 ****
 1  2  13  14  15  16  17  18  19  20  21  22  24  25 0
 3-21G
 ****
 27  28  29  32  34  39  40  41  42  43  44  45  46  47  48  49 0
 3-21G
 ****


