%nproc=1
%NoSave
%Mem=1900MB
#P OB98/GEN NMR

erre ene a

0 1
  C       44.728    -142.726    -898.390
  O       44.681    -143.569    -897.250
  P       43.289    -143.648    -896.440
  C       42.163    -145.064    -898.310
  O       42.565    -144.990    -896.950
  C       42.580    -146.396    -898.920
  O       44.022    -146.467    -899.000
  C       42.151    -147.618    -898.120
  O       40.797    -147.965    -898.370
  C       43.084    -148.680    -898.680
  O       42.572    -149.182    -899.920
  C       44.387    -147.874    -898.920
  N       48.191    -150.730    -897.200
  C       47.426    -150.878    -898.340
  N       47.721    -151.912    -899.140
  N       46.438    -150.070    -898.650
  C       46.272    -149.055    -897.770
  C       46.975    -148.809    -896.610
  C       48.026    -149.743    -896.240
  O       48.701    -149.693    -895.220
  N       46.523    -147.669    -895.980
  C       45.580    -147.213    -896.790
  N       45.375    -148.030    -897.870
  O       42.413    -142.488    -897.120
  O       43.408    -143.469    -894.970
  H       41.730    -149.620    -899.730
  H       41.744    -142.162    -896.490
  H       48.951    -151.367    -897.010
  H       45.036    -146.295    -896.620
  H       44.847    -148.137    -899.870
  H       43.209    -149.539    -898.010
  H       48.554    -152.486    -899.030
  H       42.332    -147.476    -897.050
  H       47.203    -152.010    -900.000
  H       42.182    -146.436    -899.940
  H       42.645    -144.247    -898.870
  H       41.079    -144.930    -898.360
  P       39.956    -148.553    -897.130
  C       38.939    -146.302    -896.340
  O       38.717    -147.555    -896.940
  O       40.902    -148.246    -895.880
  O       39.632    -150.010    -897.240
  H       40.738    -148.888    -895.160
  H       39.902    -145.882    -896.630
  H       38.899    -146.400    -895.260
  H       38.147    -145.615    -896.660
  H       45.704    -142.770    -898.826
  H       44.513    -141.719    -898.098
  H       44.003    -143.053    -899.105

 3  4  5  6  7  8  9  10  11  12  23  26  30  31  33  0
 6-311+G(2d,p)
 ****
 35  36  37  38 0
 6-311+G(2d,p)
 ****
 1  2  13  14  15  16  17  18  19  20  21  22  24  25  27  28  29 0
 3-21G
 ****
 32  34  39  40  41  42  43  44  45  46  47  48  49 0
 3-21G
 ****


