%nproc=1
%NoSave
%Mem=1900MB
#P OB98/GEN NMR

erre ene a

0 1
  C       47.995     -64.371      12.249
  O       49.241     -63.994      12.791
  H       48.120     -65.312      11.707
  H       47.653     -63.604      11.548
  H       47.245     -64.513      13.031
  P       49.272     -62.922      13.978
  C       49.159     -60.349      14.118
  O       48.811     -61.508      13.373
  C       48.198     -59.190      13.852
  O       46.890     -59.493      14.384
  C       48.643     -57.897      14.536
  O       49.595     -57.130      13.822
  C       47.323     -57.144      14.669
  O       47.027     -56.412      13.468
  C       46.309     -58.272      14.874
  N       43.513     -56.523      18.774
  C       43.676     -55.986      17.512
  N       43.063     -54.804      17.282
  N       44.391     -56.551      16.576
  C       45.022     -57.678      16.980
  C       44.947     -58.298      18.207
  C       44.109     -57.692      19.220
  O       43.936     -58.124      20.356
  N       45.726     -59.430      18.247
  C       46.326     -59.451      17.074
  N       45.911     -58.424      16.261
  O       50.838     -62.692      14.236
  O       48.575     -63.339      15.237
  H       47.713     -55.731      13.348
  H       50.985     -62.407      15.156
  H       42.928     -56.058      19.446
  H       47.044     -60.198      16.755
  H       45.394     -58.099      14.293
  H       47.353     -56.415      15.484
  H       42.601     -54.276      18.006
  H       49.020     -58.109      15.542
  H       43.371     -54.255      16.477
  H       48.084     -59.056      12.770
  H       50.170     -60.072      13.814
  H       49.193     -60.580      15.186
  P       50.755     -56.358      14.610
  C       50.875     -54.184      16.035
  O       50.064     -55.134      15.378
  O       51.576     -55.655      13.431
  O       51.626     -57.224      15.453
  H       52.350     -56.198      13.188
  H       50.255     -53.441      16.492
  H       51.525     -53.718      15.325
  H       51.459     -54.673      16.787

 6  7  8  9  10  11  12  13  14  15  26  29  33  34 0
 6-311+G(2d,p)
 ****
 36  38  39  40  41 0
 6-311+G(2d,p)
 ****
 1  2  3  4  5  16  17  18  19  20  21  22  23  24  25 0
 3-21G
 ****
 27  28  30  31  32  35  37  42  43  44  45  46  47 0
 3-21G
 ****
 48  49 0
 3-21G
 ****


