%nproc=1
%NoSave
%Mem=1900MB
#P OB98/GEN NMR

erre ene a

0 1
  C     -389.146      -2.658    -371.701
  O     -388.306      -1.826    -372.499
  P     -388.767      -1.516    -374.007
  C     -388.163      -2.611    -376.277
  O     -388.384      -2.803    -374.893
  C     -387.297      -3.724    -376.865
  O     -385.989      -3.708    -376.211
  C     -387.868      -5.135    -376.682
  O     -387.467      -5.909    -377.821
  C     -387.132      -5.656    -375.457
  O     -387.152      -7.075    -375.379
  C     -385.762      -5.027    -375.674
  N     -383.455      -7.717    -371.977
  C     -384.114      -8.103    -373.089
  N     -384.697      -7.321    -374.024
  C     -384.555      -6.028    -373.729
  C     -383.943      -5.479    -372.614
  C     -383.360      -6.379    -371.704
  N     -382.681      -5.996    -370.577
  N     -384.014      -4.099    -372.636
  C     -384.670      -3.814    -373.749
  N     -384.997      -4.945    -374.451
  O     -387.707      -0.410    -374.473
  O     -390.167      -1.024    -374.160
  H     -388.066      -7.379    -375.543
  H     -388.152       0.456    -374.584
  H     -384.173      -9.173    -373.247
  H     -384.934      -2.818    -374.085
  H     -385.166      -5.591    -376.407
  H     -387.608      -5.257    -374.548
  H     -388.962      -5.160    -376.569
  H     -387.128      -3.513    -377.926
  H     -387.647      -1.653    -376.418
  H     -382.171      -6.697    -370.058
  H     -382.444      -5.018    -370.472
  H     -389.123      -2.556    -376.802
  P     -387.965      -7.444    -377.873
  C     -386.964      -9.730    -377.170
  O     -386.779      -8.327    -377.266
  O     -387.927      -7.784    -379.442
  O     -389.324      -7.665    -377.286
  H     -388.583      -8.476    -379.650
  H     -385.996     -10.214    -377.317
  H     -387.669     -10.097    -377.928
  H     -387.335      -9.981    -376.176
  H     -388.713      -2.774    -370.729
  H     -389.243      -3.617    -372.165
  H     -390.112      -2.207    -371.610

 3  4  5  6  7  8  9  10  11  12  22  25  29  30  31  32 0
 6-311+G(2d,p)
 ****
 33  36  37 0
 6-311+G(2d,p)
 ****
 1  2  13  14  15  16  17  18  19  20  21  23  24  26 0
 3-21G
 ****
 27  28  34  35  38  39  40  41  42  43  44  45  46  47  48 0
 3-21G
 ****


