%nproc=1
%NoSave
%Mem=1900MB
#P OB98/GEN NMR

erre ene a

0 1
  C      540.587     -36.443    -412.354
  O      540.864     -37.787    -412.698
  P      540.202     -38.354    -414.051
  C      541.416     -40.647    -413.829
  O      540.164     -39.944    -413.894
  C      541.178     -42.153    -413.919
  O      540.581     -42.634    -412.696
  C      540.228     -42.566    -415.029
  O      540.876     -42.540    -416.275
  C      539.829     -43.971    -414.572
  O      540.777     -44.956    -415.032
  C      539.851     -43.839    -413.032
  N      538.524     -43.839    -412.434
  C      537.829     -45.063    -412.520
  O      538.343     -46.032    -413.088
  N      536.571     -45.115    -411.998
  C      536.033     -44.076    -411.451
  N      534.776     -44.190    -410.924
  C      536.731     -42.771    -411.342
  C      537.964     -42.727    -411.876
  O      541.345     -38.106    -415.145
  O      538.902     -37.699    -414.429
  H      540.402     -45.825    -414.742
  H      540.956     -38.000    -416.040
  H      536.254     -41.931    -410.893
  H      538.548     -41.823    -411.849
  H      540.421     -44.663    -412.589
  H      538.846     -44.260    -414.961
  H      539.357     -41.907    -415.042
  H      542.156     -42.650    -414.043
  H      534.328     -45.096    -411.009
  H      541.895     -40.416    -412.862
  H      534.289     -43.441    -410.460
  H      542.059     -40.302    -414.645
  P      539.975     -42.463    -417.599
  C      541.550     -41.004    -419.004
  O      541.002     -42.306    -418.801
  O      539.347     -40.982    -417.492
  O      538.918     -43.511    -417.734
  H      538.678     -40.862    -418.187
  H      542.333     -41.064    -419.767
  H      541.958     -40.613    -418.077
  H      540.751     -40.328    -419.390
  H      541.086     -36.199    -411.440
  H      539.532     -36.317    -412.229
  H      540.934     -35.797    -413.133

 3  4  5  6  7  8  9  10  11  12  13  21  23  27  28  29  30  32 0
 6-311+G(2d,p)
 ****
 34  35 0
 6-311+G(2d,p)
 ****
 1  2  14  15  16  17  18  19  20  22  24  25  26 0
 3-21G
 ****
 31  33  36  37  38  39  40  41  42  43  44  45  46 0
 3-21G
 ****


