%nproc=1
%NoSave
%Mem=1900MB
#P OB98/GEN NMR

erre ene a

0 1
  C      291.623      60.535    -380.956
  O      290.549      59.592    -380.933
  P      289.061      60.193    -380.935
  C      288.965      60.283    -378.341
  O      288.834      61.000    -379.560
  C      287.930      60.723    -377.299
  O      288.293      62.003    -376.710
  C      286.515      60.871    -377.869
  O      285.594      60.503    -376.843
  C      286.399      62.370    -378.109
  O      285.034      62.776    -378.185
  C      287.179      62.909    -376.904
  N      287.641      64.287    -377.094
  C      286.731      65.308    -376.796
  O      285.578      65.026    -376.465
  N      287.126      66.617    -376.921
  C      288.325      66.881    -377.357
  N      288.661      68.199    -377.457
  C      289.300      65.844    -377.738
  C      288.896      64.583    -377.577
  O      288.136      58.896    -380.774
  O      288.718      60.950    -382.172
  H      284.614      62.298    -378.937
  H      287.427      58.903    -381.443
  H      290.276      66.116    -378.120
  H      289.544      63.750    -377.832
  H      286.571      62.882    -375.997
  H      286.902      62.646    -379.055
  H      286.340      60.266    -378.766
  H      287.923      59.982    -376.487
  H      287.965      68.879    -377.176
  H      289.973      60.429    -377.928
  H      289.560      68.527    -377.793
  H      288.884      59.204    -378.549
  P      284.578      59.289    -377.120
  C      283.062      61.051    -378.227
  O      283.690      59.785    -378.366
  O      283.543      59.449    -375.900
  O      285.127      57.904    -377.196
  H      282.898      58.714    -375.928
  H      282.600      61.317    -379.181
  H      283.809      61.819    -377.971
  H      282.288      61.005    -377.459
  H      292.557      60.012    -380.952
  H      291.563      61.165    -380.093
  H      291.553      61.134    -381.840

 3  4  5  6  7  8  9  10  11  12  13  21  23  27  28  29  30  32 0
 6-311+G(2d,p)
 ****
 34  35 0
 6-311+G(2d,p)
 ****
 1  2  14  15  16  17  18  19  20  22  24  25  26 0
 3-21G
 ****
 31  33  36  37  38  39  40  41  42  43  44  45  46 0
 3-21G
 ****


