%nproc=1
%NoSave
%Mem=1900MB
#P OB98/GEN NMR

erre ene a

0 1
  C     -742.845    -490.767    -896.840
  O     -744.060    -490.763    -896.110
  P     -745.406    -490.312    -896.880
  C     -745.738    -492.535    -898.200
  O     -746.228    -491.653    -897.190
  C     -746.501    -493.848    -898.190
  O     -746.111    -494.644    -897.070
  C     -748.011    -493.695    -898.080
  O     -748.621    -493.376    -899.330
  C     -748.430    -495.091    -897.630
  O     -748.497    -495.970    -898.770
  C     -747.250    -495.495    -896.700
  N     -749.149    -497.664    -892.560
  C     -749.022    -498.180    -893.820
  N     -749.408    -499.449    -894.030
  N     -748.532    -497.487    -894.820
  C     -748.127    -496.236    -894.490
  C     -748.222    -495.617    -893.240
  C     -748.798    -496.390    -892.150
  O     -749.030    -495.957    -891.020
  N     -747.705    -494.351    -893.270
  C     -747.253    -494.215    -894.520
  N     -747.532    -495.313    -895.290
  O     -744.861    -489.878    -898.330
  O     -746.153    -489.212    -896.210
  H     -749.140    -495.564    -899.380
  H     -745.452    -489.215    -898.740
  H     -749.512    -498.251    -891.810
  H     -746.759    -493.329    -894.900
  H     -746.926    -496.517    -896.870
  H     -749.405    -495.103    -897.130
  H     -749.672    -500.062    -893.250
  H     -748.290    -492.957    -897.320
  H     -749.276    -499.854    -894.930
  H     -746.226    -494.392    -899.130
  H     -744.660    -492.751    -897.980
  H     -745.803    -492.019    -899.160
  P     -750.043    -492.609    -899.310
  C     -749.197    -490.149    -899.220
  O     -749.771    -491.174    -900.000
  O     -750.212    -492.277    -897.740
  O     -751.172    -493.433    -899.850
  H     -751.165    -492.209    -897.510
  H     -748.437    -490.523    -898.530
  H     -749.980    -489.624    -898.660
  H     -748.713    -489.440    -899.900
  H     -742.047    -491.086    -896.202
  H     -742.642    -489.780    -897.200
  H     -742.929    -491.438    -897.669

 3  4  5  6  7  8  9  10  11  12  23  26  30  31  33  0
 6-311+G(2d,p)
 ****
 35  36  37  38 0
 6-311+G(2d,p)
 ****
 1  2  13  14  15  16  17  18  19  20  21  22  24  25  27  28  29 0
 3-21G
 ****
 32  34  39  40  41  42  43  44  45  46  47  48  49 0
 3-21G
 ****


