%nproc=1
%NoSave
%Mem=1900MB
#P OB98/GEN NMR

erre ene a

0 1
  C     -256.398       8.514    -432.352
  O     -256.168       9.783    -431.770
  H     -256.424       7.764    -431.558
  H     -255.590       8.267    -433.046
  H     -257.356       8.508    -432.878
  P     -256.114      11.034    -432.772
  C     -258.606      11.649    -432.352
  O     -257.614      11.261    -433.294
  C     -259.761      12.335    -433.074
  O     -259.301      13.573    -433.666
  C     -260.334      11.524    -434.227
  O     -261.205      10.497    -433.784
  C     -261.039      12.609    -435.026
  O     -262.341      12.891    -434.498
  C     -260.115      13.818    -434.838
  N     -260.069      15.340    -439.710
  C     -261.053      15.303    -438.786
  N     -260.982      14.894    -437.502
  C     -259.727      14.521    -437.192
  C     -258.623      14.507    -438.026
  C     -258.827      14.945    -439.348
  N     -257.830      14.959    -440.297
  N     -257.516      14.021    -437.362
  C     -257.941      13.752    -436.143
  N     -259.269      14.044    -435.994
  O     -255.352      10.442    -434.048
  O     -255.437      12.249    -432.233
  H     -262.794      13.442    -435.169
  H     -254.415      10.716    -434.025
  H     -262.030      15.636    -439.125
  H     -257.334      13.345    -435.344
  H     -260.673      14.744    -434.658
  H     -261.161      12.307    -436.069
  H     -259.525      11.107    -434.835
  H     -260.539      12.578    -432.340
  H     -258.167      12.346    -431.628
  H     -258.957      10.759    -431.820
  H     -258.064      15.221    -441.240
  H     -256.929      14.559    -440.066
  P     -261.637       9.378    -434.846
  C     -260.031       7.413    -434.243
  O     -260.346       8.471    -435.136
  O     -261.841      10.198    -436.206
  O     -262.860       8.608    -434.475
  H     -262.578       9.811    -436.719
  H     -259.147       6.913    -434.580
  H     -260.844       6.718    -434.212
  H     -259.864       7.811    -433.264

 6  7  8  9  10  11  12  13  14  15  25  28  32  33  34  35 0
 6-311+G(2d,p)
 ****
 36  37  40 0
 6-311+G(2d,p)
 ****
 1  2  3  4  5  16  17  18  19  20  21  22  23  24 0
 3-21G
 ****
 26  27  29  30  31  38  39 41  42  43  44  45  46  47  48 0
 3-21G
 ****


