%nproc=1
%NoSave
%Mem=1900MB
#P OB98/GEN NMR

erre ene a

0 1
  C      113.679     -19.442    -596.484
  O      112.767     -20.472    -596.802
  H      114.463     -19.836    -595.831
  H      114.140     -19.080    -597.407
  H      113.168     -18.608    -595.992
  P      111.759     -20.945    -595.647
  C      109.694     -19.811    -596.739
  O      110.567     -19.868    -595.619
  C      108.666     -18.697    -596.558
  O      109.340     -17.413    -596.709
  C      107.505     -18.736    -597.566
  O      106.302     -18.368    -596.886
  C      107.867     -17.645    -598.558
  O      106.732     -17.109    -599.226
  C      108.574     -16.642    -597.652
  N      108.537     -12.648    -600.798
  C      107.600     -13.148    -599.964
  N      107.712     -14.191    -599.118
  C      108.963     -14.683    -599.130
  C      110.023     -14.274    -599.919
  C      109.769     -13.212    -600.801
  N      110.694     -12.739    -601.703
  N      111.132     -15.067    -599.684
  C      110.734     -15.955    -598.791
  N      109.431     -15.765    -598.428
  O      112.589     -20.622    -594.315
  O      111.333     -22.373    -595.708
  H      106.058     -16.863    -598.561
  H      113.153     -21.385    -594.089
  H      106.633     -12.658    -599.993
  H      111.335     -16.765    -598.404
  H      107.872     -16.010    -597.089
  H      108.554     -18.048    -599.312
  H      107.374     -19.713    -598.049
  H      108.285     -18.737    -595.531
  H      109.169     -20.767    -596.828
  H      110.389     -12.046    -602.371
  H      111.578     -13.218    -601.794
  H      110.282     -19.645    -597.645
  P      105.241     -19.530    -596.585
  C      105.497     -19.226    -594.010
  O      105.527     -20.117    -595.122
  O      105.704     -20.714    -597.556
  O      103.821     -19.135    -596.839
  H      104.933     -21.228    -597.858
  H      105.706     -19.769    -593.112
  H      104.528     -18.778    -593.938
  H      106.234     -18.462    -594.145

 6  7  8  9  10  11  12  13  14  15  25  28  32  33  34  35 0
 6-311+G(2d,p)
 ****
 36  39  40 0
 6-311+G(2d,p)
 ****
 1  2  3  4  5  16  17  18  19  20  21  22  23  24 0
 3-21G
 ****
 26  27  29  30  31  37  38  41  42  43  44  45  46  47 0
 3-21G
 ****
 48 0
 3-21G
 ****


