%nproc=1
%NoSave
%Mem=1900MB
#P OB98/GEN NMR

erre ene a

0 1
  C       55.878    -357.218    -586.798
  O       55.466    -358.320    -586.002
  P       55.432    -359.776    -586.699
  C       56.411    -360.839    -584.537
  O       55.386    -360.862    -585.518
  C       56.436    -362.128    -583.725
  O       55.191    -362.218    -582.951
  C       56.529    -363.421    -584.559
  O       57.305    -364.348    -583.805
  C       55.085    -363.848    -584.665
  O       54.902    -365.206    -585.056
  C       54.610    -363.506    -583.255
  N       50.256    -366.237    -583.340
  C       51.569    -366.609    -583.400
  N       52.666    -365.827    -583.365
  C       52.312    -364.527    -583.246
  C       51.049    -364.001    -583.194
  C       49.977    -364.925    -583.246
  N       48.646    -364.542    -583.196
  N       51.087    -362.618    -583.083
  C       52.370    -362.322    -583.097
  N       53.143    -363.431    -583.164
  O       56.920    -359.938    -587.284
  O       54.392    -359.944    -587.759
  H       55.213    -365.336    -585.970
  H       56.919    -360.367    -588.151
  H       51.763    -367.674    -583.493
  H       52.775    -361.317    -583.062
  H       54.955    -364.222    -582.507
  H       54.568    -363.248    -585.405
  H       57.021    -363.256    -585.529
  H       57.266    -362.070    -583.000
  H       56.236    -360.000    -583.851
  H       47.973    -365.237    -583.452
  H       48.452    -363.554    -583.330
  H       57.386    -360.664    -585.034
  P       58.698    -364.872    -584.412
  C       59.303    -365.957    -582.142
  O       59.051    -366.187    -583.522
  O       59.737    -363.805    -583.800
  O       58.764    -365.025    -585.896
  H       59.611    -363.694    -582.836
  H       59.412    -366.927    -581.648
  H       58.473    -365.412    -581.684
  H       60.238    -365.379    -582.028
  H       55.852    -356.324    -586.210
  H       55.217    -357.115    -587.633
  H       56.875    -357.385    -587.150

 3  4  5  6  7  8  9  10  11  12  22  25  29  30  31  32 0
 6-311+G(2d,p)
 ****
 33  36  37 0
 6-311+G(2d,p)
 ****
 1  2  13  14  15  16  17  18  19  20  21  23  24  26 0
 3-21G
 ****
 27  28  34  35  38  39  40  41  42  43  44  45  46  47  48 0
 3-21G
 ****


