%nproc=1
%NoSave
%Mem=1900MB
#P OB98/GEN NMR

erre ene a

0 1
  C     -149.230    -270.783     167.956
  O     -148.218    -270.043     168.651
  P     -147.811    -270.593     170.107
  C     -145.374    -269.774     169.739
  O     -146.509    -269.787     170.596
  C     -145.421    -268.605     168.749
  O     -145.543    -267.363     169.483
  C     -144.187    -268.477     167.847
  O     -144.611    -268.041     166.549
  C     -143.412    -267.334     168.480
  O     -142.528    -266.705     167.554
  C     -144.563    -266.452     168.960
  N     -142.464    -261.931     169.816
  C     -142.824    -262.524     168.620
  N     -142.568    -261.822     167.498
  N     -143.386    -263.703     168.539
  C     -143.614    -264.276     169.745
  C     -143.310    -263.783     170.996
  C     -142.649    -262.499     171.070
  O     -142.258    -261.941     172.093
  N     -143.693    -264.658     171.986
  C     -144.218    -265.677     171.334
  N     -144.184    -265.495     169.974
  O     -147.267    -272.067     169.800
  O     -148.945    -270.622     171.076
  H     -142.141    -265.932     168.007
  H     -147.766    -272.723     170.323
  H     -142.015    -261.032     169.820
  H     -144.608    -266.575     171.789
  H     -145.020    -265.905     168.128
  H     -142.816    -267.715     169.318
  H     -142.198    -260.885     167.493
  H     -143.592    -269.390     167.759
  H     -142.867    -262.222     166.615
  H     -146.327    -268.712     168.139
  H     -145.328    -270.712     169.182
  H     -144.472    -269.709     170.357
  P     -144.636    -269.158     165.396
  C     -146.650    -268.355     163.957
  O     -145.243    -268.434     164.103
  O     -145.806    -270.146     165.864
  O     -143.337    -269.865     165.200
  H     -145.648    -271.044     165.513
  H     -147.175    -268.636     164.871
  H     -146.962    -269.021     163.149
  H     -146.921    -267.328     163.698
  H     -149.416    -270.327     167.006
  H     -150.131    -270.785     168.534
  H     -148.898    -271.790     167.809

 3  4  5  6  7  8  9  10  11  12  23  26  30  31  33  0
 6-311+G(2d,p)
 ****
 35  36  37  38 0
 6-311+G(2d,p)
 ****
 1  2  13  14  15  16  17  18  19  20  21  22  24  25  27  28  29 0
 3-21G
 ****
 32  34  39  40  41  42  43  44  45  46  47  48  49 0
 3-21G
 ****


