%nproc=1
%NoSave
%Mem=1900MB
#P OB98/GEN NMR

erre ene a

0 1
  C      -17.361     -59.604     137.080
  O      -16.729     -60.606     136.309
  H      -17.092     -59.749     138.130
  H      -18.448     -59.674     136.986
  H      -17.023     -58.613     136.767
  P      -17.028     -60.662     134.738
  C      -14.749     -61.844     134.415
  O      -16.148     -61.868     134.153
  C      -14.084     -63.116     133.896
  O      -14.530     -64.259     134.653
  C      -14.399     -63.434     132.440
  O      -13.674     -62.584     131.575
  C      -14.016     -64.904     132.386
  O      -12.592     -65.061     132.288
  C      -14.525     -65.400     133.762
  N      -15.846     -66.017     133.704
  C      -15.890     -67.334     133.230
  O      -14.857     -67.899     132.876
  N      -17.109     -67.961     133.155
  C      -18.179     -67.352     133.556
  N      -19.353     -68.030     133.459
  C      -18.172     -65.978     134.094
  C      -16.987     -65.373     134.129
  O      -16.884     -59.373     133.990
  O      -18.522     -61.231     134.650
  H      -12.207     -64.489     132.981
  H      -19.164     -60.499     134.596
  H      -19.088     -65.512     134.428
  H      -16.893     -64.362     134.512
  H      -13.827     -66.131     134.188
  H      -14.454     -65.416     131.529
  H      -15.477     -63.353     132.258
  H      -13.001     -63.020     134.052
  H      -19.306     -68.979     133.102
  H      -14.626     -61.771     135.501
  H      -20.214     -67.723     133.886
  H      -14.285     -60.963     133.957
  P      -14.120     -62.357     130.052
  C      -13.344     -59.907     129.969
  O      -13.141     -61.222     129.476
  O      -15.574     -62.096     129.848
  O      -13.598     -63.672     129.307
  H      -14.202     -64.436     129.491
  H      -12.638     -59.243     129.516
  H      -13.210     -59.900     131.031
  H      -14.337     -59.587     129.732

 6  7  8  9  10  11  12  13  14  15  16  26  30  31  32  33  35 0
 6-311+G(2d,p)
 ****
 37  38 0
 6-311+G(2d,p)
 ****
 1  2  3  4  5  17  18  19  20  21  22  23  24  25 0
 3-21G
 ****
 27  28  29  34  36  39  40  41  42  43  44  45  46 0
 3-21G
 ****


