%nproc=1
%NoSave
%Mem=1900MB
#P OB98/GEN NMR

erre ene a

0 1
  C        0.353    -199.319    -139.009
  O       -1.042    -199.414    -138.777
  P       -2.037    -198.862    -139.904
  C       -3.018    -196.505    -140.386
  O       -1.900    -197.262    -139.942
  C       -2.678    -195.015    -140.448
  O       -1.697    -194.782    -141.491
  C       -3.886    -194.123    -140.749
  O       -3.735    -192.871    -140.062
  C       -3.756    -193.843    -142.233
  O       -4.436    -192.644    -142.602
  C       -2.236    -193.782    -142.379
  N       -0.579    -191.576    -146.615
  C       -0.665    -191.064    -145.336
  N       -0.347    -189.760    -145.187
  N       -1.026    -191.768    -144.294
  C       -1.322    -193.056    -144.596
  C       -1.258    -193.683    -145.821
  C       -0.871    -192.889    -146.965
  O       -0.802    -193.274    -148.128
  N       -1.600    -195.006    -145.725
  C       -1.912    -195.176    -144.455
  N       -1.792    -194.014    -143.738
  O       -3.482    -199.098    -139.252
  O       -1.928    -199.546    -141.222
  H       -4.292    -192.522    -143.559
  H       -3.916    -199.858    -139.681
  H       -0.309    -190.991    -147.386
  H       -2.249    -196.102    -144.013
  H       -1.840    -192.810    -142.059
  H       -4.182    -194.670    -142.811
  H       -0.127    -189.148    -145.958
  H       -4.855    -194.563    -140.488
  H       -0.444    -189.349    -144.267
  H       -2.211    -194.725    -139.499
  H       -3.846    -196.656    -139.696
  H       -3.330    -196.860    -141.375
  P       -5.095    -192.081    -139.733
  C       -6.865    -190.872    -141.209
  O       -5.766    -191.757    -141.151
  O       -4.578    -190.657    -139.221
  O       -5.972    -192.762    -138.737
  H       -5.240    -190.249    -138.632
  H       -6.581    -189.995    -141.798
  H       -7.188    -190.542    -140.218
  H       -7.700    -191.375    -141.702
  H        0.882    -199.726    -138.173
  H        0.624    -198.292    -139.137
  H        0.606    -199.867    -139.892

 3  4  5  6  7  8  9  10  11  12  23  26  30  31 0
 6-311+G(2d,p)
 ****
 33  35  36  37  38 0
 6-311+G(2d,p)
 ****
 1  2  13  14  15  16  17  18  19  20  21  22  24  25 0
 3-21G
 ****
 27  28  29  32  34  39  40  41  42  43  44  45  46  47  48  49 0
 3-21G
 ****


