%nproc=1
%NoSave
%Mem=1900MB
#P OB98/GEN NMR

erre ene a

0 1
  C       79.304     -35.569     461.438
  O       78.391     -34.617     460.899
  P       77.998     -34.785     459.344
  C       78.954     -32.409     458.815
  O       78.962     -33.799     458.527
  C       79.515     -31.627     457.621
  O       80.918     -31.941     457.438
  C       78.839     -31.937     456.297
  O       77.636     -31.202     456.170
  C       79.911     -31.533     455.300
  O       79.913     -30.102     455.090
  C       81.196     -31.981     456.014
  N       82.621     -34.927     452.157
  C       82.046     -33.665     452.149
  N       81.860     -33.093     450.930
  N       81.684     -33.027     453.230
  C       81.910     -33.728     454.361
  C       82.468     -34.987     454.497
  C       82.910     -35.656     453.305
  O       83.508     -36.725     453.260
  N       82.515     -35.376     455.812
  C       82.028     -34.345     456.476
  N       81.667     -33.299     455.632
  O       76.551     -34.086     459.265
  O       77.978     -36.199     458.843
  H       79.946     -29.645     455.947
  H       75.846     -34.758     459.302
  H       82.899     -35.360     451.292
  H       81.939     -34.281     457.548
  H       82.041     -31.290     455.837
  H       79.770     -31.991     454.317
  H       82.101     -33.539     450.061
  H       78.638     -33.018     456.208
  H       81.439     -32.174     450.913
  H       79.445     -30.557     457.856
  H       79.571     -32.218     459.698
  H       77.915     -32.091     459.031
  P       76.682     -31.539     454.919
  C       76.704     -29.072     454.090
  O       76.963     -30.435     453.801
  O       75.221     -31.169     455.460
  O       76.755     -32.962     454.456
  H       74.573     -31.801     455.094
  H       77.398     -28.444     453.516
  H       76.836     -28.859     455.163
  H       75.675     -28.834     453.802
  H       79.481     -35.349     462.470
  H       80.228     -35.522     460.900
  H       78.889     -36.551     461.349

 3  4  5  6  7  8  9  10  11  12  23  26  30  31 0
 6-311+G(2d,p)
 ****
 33  35  36  37  38 0
 6-311+G(2d,p)
 ****
 1  2  13  14  15  16  17  18  19  20  21  22  24  25 0
 3-21G
 ****
 27  28  29  32  34  39  40  41  42  43  44  45  46  47  48  49 0
 3-21G
 ****


