%nproc=1
%NoSave
%Mem=1900MB
#P OB98/GEN NMR

erre ene a

0 1
  C      -15.993      31.065     -32.636
  O      -16.916      30.054     -32.286
  H      -16.285      31.490     -33.600
  H      -14.987      30.647     -32.726
  H      -15.998      31.857     -31.882
  P      -16.596      29.232     -30.943
  C      -16.536      30.014     -28.454
  O      -16.468      30.378     -29.825
  C      -15.753      31.018     -27.615
  O      -14.378      31.083     -28.052
  C      -16.276      32.447     -27.706
  O      -17.427      32.666     -26.907
  C      -15.073      33.211     -27.186
  O      -15.001      33.082     -25.754
  C      -13.916      32.449     -27.871
  N      -13.524      33.033     -29.154
  C      -12.901      34.286     -29.110
  O      -12.713      34.854     -28.036
  N      -12.534      34.884     -30.292
  C      -12.758      34.282     -31.418
  N      -12.386      34.926     -32.557
  C      -13.395      32.956     -31.509
  C      -13.749      32.397     -30.355
  O      -15.078      28.765     -31.139
  O      -17.542      28.128     -30.609
  H      -14.795      32.148     -25.564
  H      -14.744      28.355     -30.305
  H      -13.571      32.499     -32.472
  H      -14.225      31.423     -30.344
  H      -13.034      32.410     -27.221
  H      -15.113      34.278     -27.411
  H      -16.458      32.745     -28.744
  H      -15.749      30.660     -26.577
  H      -12.009      35.860     -32.467
  H      -16.110      29.012     -28.342
  H      -12.681      34.622     -33.476
  H      -17.579      29.998     -28.122
  P      -18.518      33.715     -27.444
  C      -20.126      33.700     -29.483
  O      -18.874      33.291     -28.950
  O      -17.667      35.055     -27.632
  O      -19.695      33.919     -26.542
  H      -18.182      35.840     -27.367
  H      -20.219      33.345     -30.488
  H      -20.185      34.768     -29.475
  H      -20.917      33.295     -28.887

 6  7  8  9  10  11  12  13  14  15  16  26  30  31  32  33  35 0
 6-311+G(2d,p)
 ****
 37  38 0
 6-311+G(2d,p)
 ****
 1  2  3  4  5  17  18  19  20  21  22  23  24  25 0
 3-21G
 ****
 27  28  29  34  36  39  40  41  42  43  44  45  46 0
 3-21G
 ****


