%nproc=1
%NoSave
%Mem=1900MB
#P OB98/GEN NMR

erre ene a

0 1
  C      363.749    -403.741    -514.504
  O      363.325    -402.531    -515.128
  P      362.763    -401.331    -514.237
  C      360.337    -401.430    -515.137
  O      361.187    -401.535    -514.000
  C      358.871    -401.589    -514.712
  O      358.585    -402.951    -514.304
  C      358.519    -400.738    -513.501
  O      358.482    -399.336    -513.694
  C      357.249    -401.409    -513.003
  O      356.093    -400.964    -513.714
  C      357.530    -402.902    -513.311
  N      357.903    -403.661    -512.117
  C      356.923    -404.512    -511.611
  O      355.791    -404.602    -512.087
  N      357.279    -405.239    -510.506
  C      358.472    -405.172    -509.843
  O      358.726    -405.828    -508.838
  C      359.462    -404.236    -510.416
  C      359.131    -403.533    -511.503
  O      363.169    -399.959    -514.659
  O      363.376    -401.665    -512.784
  H      355.325    -401.442    -513.346
  H      363.662    -400.821    -512.383
  H      356.576    -405.862    -510.120
  H      360.425    -404.152    -509.910
  H      359.855    -402.840    -511.935
  H      356.656    -403.370    -513.756
  H      357.070    -401.192    -511.938
  H      359.289    -400.908    -512.733
  H      358.233    -401.358    -515.571
  H      360.604    -402.200    -515.867
  H      360.509    -400.466    -515.623
  P      359.733    -398.384    -513.445
  C      359.536    -397.750    -510.934
  O      360.193    -398.526    -511.912
  O      359.666    -396.994    -514.009
  O      360.902    -399.184    -514.214
  H      361.532    -398.532    -514.589
  H      359.993    -397.967    -509.959
  H      358.471    -398.016    -510.894
  H      359.654    -396.687    -511.150
  H      364.092    -404.426    -515.251
  H      362.928    -404.175    -513.972
  H      364.545    -403.530    -513.821

 3  4  5  6  7  8  9  10  11  12  13  23  28  29  30  31  32 0
 6-311+G(2d,p)
 ****
 33  34 0
 6-311+G(2d,p)
 ****
 1  2  14  15  16  17  18  19  20  21  22  24  25  26  27 0
 3-21G
 ****
 35  36  37  38  39  40  41  42  43  44  45 0
 3-21G
 ****


