%nproc=1
%NoSave
%Mem=1900MB
#P OB98/GEN NMR

erre ene a

0 1
  C      -48.009     -57.136     238.469
  O      -47.661     -58.058     237.454
  H      -47.174     -56.447     238.617
  H      -48.204     -57.657     239.410
  H      -48.891     -56.560     238.175
  P      -48.727     -59.183     237.054
  C      -49.790     -57.709     235.220
  O      -49.987     -58.398     236.447
  C      -50.880     -58.090     234.226
  O      -50.641     -59.409     233.698
  C      -52.286     -58.109     234.824
  O      -52.815     -56.795     234.890
  C      -53.001     -58.994     233.817
  O      -53.287     -58.239     232.624
  C      -51.931     -60.060     233.528
  N      -54.651     -64.092     234.955
  C      -54.961     -63.083     234.063
  N      -56.190     -63.136     233.507
  N      -54.149     -62.103     233.763
  C      -52.985     -62.144     234.451
  C      -52.571     -63.081     235.370
  C      -53.455     -64.191     235.652
  O      -53.212     -65.116     236.422
  N      -51.353     -62.754     235.908
  C      -51.014     -61.641     235.287
  N      -51.979     -61.221     234.402
  O      -49.089     -60.167     238.126
  O      -48.083     -59.894     235.776
  H      -53.945     -57.564     232.874
  H      -47.553     -60.670     236.033
  H      -55.326     -64.809     235.158
  H      -50.087     -61.103     235.437
  H      -51.979     -60.430     232.498
  H      -53.947     -59.388     234.187
  H      -56.936     -63.688     233.911
  H      -52.305     -58.607     235.799
  H      -56.455     -62.379     232.890
  H      -50.824     -57.391     233.382
  H      -48.804     -57.994     234.836
  H      -49.804     -56.627     235.385
  P      -53.981     -56.423     235.929
  C      -52.242     -56.261     237.833
  O      -53.425     -56.888     237.358
  O      -55.327     -56.959     235.579
  O      -53.928     -54.832     236.039
  H      -54.487     -54.370     235.366
  H      -51.985     -56.663     238.791
  H      -52.407     -55.208     237.921
  H      -51.442     -56.440     237.145

 6  7  8  9  10  11  12  13  14  15  26  29  33  34 0
 6-311+G(2d,p)
 ****
 36  38  39  40  41 0
 6-311+G(2d,p)
 ****
 1  2  3  4  5  16  17  18  19  20  21  22  23  24  25 0
 3-21G
 ****
 27  28  30  31  32  35  37  42  43  44  45  46  47 0
 3-21G
 ****
 48  49 0
 3-21G
 ****


