%nproc=1
%NoSave
%Mem=1900MB
#P OB98/GEN NMR

erre ene a

0 1
  C       50.012     -51.724     -14.278
  O       49.435     -50.453     -14.499
  H       49.938     -52.335     -15.181
  H       51.069     -51.593     -14.029
  H       49.513     -52.227     -13.445
  P       47.874     -50.421     -14.871
  C       46.486     -51.242     -16.908
  O       47.775     -50.963     -16.379
  C       46.435     -50.832     -18.376
  O       46.521     -49.394     -18.496
  C       47.576     -51.386     -19.222
  O       47.345     -52.723     -19.625
  C       47.530     -50.437     -20.406
  O       46.440     -50.797     -21.275
  C       47.244     -49.094     -19.720
  N       51.591     -47.136     -21.578
  C       50.607     -47.856     -22.156
  N       49.484     -48.345     -21.592
  C       49.428     -48.023     -20.290
  C       50.359     -47.302     -19.561
  C       51.486     -46.841     -20.263
  N       52.500     -46.118     -19.672
  N       49.973     -47.203     -18.238
  C       48.813     -47.825     -18.182
  N       48.446     -48.346     -19.393
  O       47.557     -48.859     -15.025
  O       46.963     -51.097     -13.903
  H       46.364     -50.084     -21.938
  H       46.599     -48.702     -14.930
  H       50.741     -48.070     -23.214
  H       48.205     -47.924     -17.292
  H       46.607     -48.440     -20.326
  H       48.440     -50.458     -21.008
  H       48.543     -51.280     -18.714
  H       45.463     -51.142     -18.781
  H       45.737     -50.675     -16.348
  H       53.342     -45.998     -20.214
  H       52.500     -46.025     -18.667
  H       46.278     -52.311     -16.804
  P       48.608     -53.713     -19.658
  C       50.900     -53.434     -20.854
  O       49.488     -53.257     -20.917
  O       47.971     -55.101     -20.128
  O       49.340     -53.833     -18.362
  H       48.502     -55.854     -19.807
  H       51.344     -53.085     -21.763
  H       51.124     -54.472     -20.724
  H       51.293     -52.878     -20.028

 6  7  8  9  10  11  12  13  14  15  25  28  32  33  34  35 0
 6-311+G(2d,p)
 ****
 36  39  40 0
 6-311+G(2d,p)
 ****
 1  2  3  4  5  16  17  18  19  20  21  22  23  24 0
 3-21G
 ****
 26  27  29  30  31  37  38  41  42  43  44  45  46  47 0
 3-21G
 ****
 48 0
 3-21G
 ****


