%nproc=1
%NoSave
%Mem=1900MB
#P OB98/GEN NMR

erre ene a

0 1
  C      148.701    -950.872      24.286
  O      149.254    -950.238      23.150
  H      148.420    -951.891      24.012
  H      147.807    -950.334      24.621
  H      149.443    -950.909      25.093
  P      149.711    -948.708      23.329
  C      150.006    -948.547      20.755
  O      149.370    -948.026      21.913
  C      149.201    -948.206      19.505
  O      147.946    -948.905      19.513
  C      148.878    -946.727      19.357
  O      149.962    -946.040      18.769
  C      147.690    -946.794      18.400
  O      148.160    -946.954      17.044
  C      146.952    -948.072      18.853
  N      141.926    -947.075      19.233
  C      142.771    -947.038      18.176
  N      144.111    -947.264      18.147
  C      144.554    -947.557      19.394
  C      143.813    -947.620      20.560
  C      142.442    -947.372      20.444
  N      141.574    -947.402      21.523
  N      144.619    -947.959      21.631
  C      145.819    -948.134      21.107
  N      145.838    -947.869      19.751
  O      151.096    -948.499      23.841
  O      148.543    -948.149      24.276
  H      147.368    -947.176      16.502
  H      147.679    -948.513      24.001
  H      142.327    -946.793      17.215
  H      146.688    -948.478      21.650
  H      146.578    -948.638      18.001
  H      147.077    -945.894      18.427
  H      148.553    -946.276      20.303
  H      149.773    -948.575      18.628
  H      150.115    -949.631      20.847
  H      140.660    -947.030      21.396
  H      141.985    -947.506      22.446
  H      151.010    -948.107      20.706
  P      150.078    -944.436      18.865
  C      151.859    -944.713      17.028
  O      150.729    -943.978      17.470
  O      150.765    -943.935      20.100
  O      148.567    -943.925      18.745
  H      148.498    -943.007      19.056
  H      152.200    -944.316      16.095
  H      151.589    -945.741      16.901
  H      152.641    -944.637      17.755

 6  7  8  9  10  11  12  13  14  15  25  28  32  33  34  35 0
 6-311+G(2d,p)
 ****
 36  39  40 0
 6-311+G(2d,p)
 ****
 1  2  3  4  5  16  17  18  19  20  21  22  23  24 0
 3-21G
 ****
 26  27  29  30  31  37  38  41  42  43  44  45  46  47 0
 3-21G
 ****
 48 0
 3-21G
 ****


