%nproc=1
%NoSave
%Mem=1900MB
#P OB98/GEN NMR

erre ene a

0 1
  C      -94.130    -148.243    -300.838
  O      -93.648    -148.981    -299.731
  H      -95.189    -148.017    -300.677
  H      -94.037    -148.820    -301.762
  H      -93.580    -147.302    -300.934
  P      -92.158    -149.566    -299.802
  C      -92.187    -149.713    -297.219
  O      -91.957    -150.396    -298.446
  C      -91.907    -150.642    -296.043
  O      -90.699    -151.391    -296.275
  C      -91.691    -149.900    -294.731
  O      -92.919    -149.448    -294.197
  C      -90.973    -150.959    -293.918
  O      -91.895    -151.915    -293.377
  C      -90.068    -151.612    -294.990
  N      -88.708    -151.087    -294.975
  C      -87.853    -151.623    -294.007
  O      -88.255    -152.490    -293.232
  N      -86.569    -151.141    -293.930
  C      -86.169    -150.224    -294.753
  N      -84.886    -149.793    -294.625
  C      -87.034    -149.643    -295.797
  C      -88.279    -150.111    -295.849
  O      -91.062    -148.589    -300.096
  O      -92.257    -150.712    -300.916
  H      -92.399    -151.440    -292.687
  H      -92.072    -150.344    -301.800
  H      -86.656    -148.885    -296.466
  H      -88.980    -149.740    -296.588
  H      -90.019    -152.698    -294.844
  H      -90.423    -150.523    -293.086
  H      -91.000    -149.063    -294.880
  H      -92.736    -151.356    -295.960
  H      -84.331    -150.213    -293.886
  H      -93.236    -149.402    -297.213
  H      -84.441    -149.151    -295.261
  H      -91.559    -148.817    -297.151
  P      -93.038    -147.985    -293.555
  C      -95.494    -148.266    -294.296
  O      -94.609    -147.761    -293.299
  O      -92.352    -146.897    -294.312
  O      -92.463    -148.190    -292.075
  H      -91.479    -148.280    -292.080
  H      -96.505    -148.057    -294.014
  H      -95.361    -149.324    -294.389
  H      -95.281    -147.796    -295.233

 6  7  8  9  10  11  12  13  14  15  16  26  30  31  32  33  35 0
 6-311+G(2d,p)
 ****
 37  38 0
 6-311+G(2d,p)
 ****
 1  2  3  4  5  17  18  19  20  21  22  23  24  25 0
 3-21G
 ****
 27  28  29  34  36  39  40  41  42  43  44  45  46 0
 3-21G
 ****


