%nproc=1
%NoSave
%Mem=1900MB
#P OB98/GEN NMR

erre ene a

0 1
  C      200.842    -265.529     328.626
  O      199.722    -264.703     328.388
  H      201.679    -265.170     328.017
  H      200.620    -266.558     328.335
  H      201.137    -265.498     329.679
  P      198.419    -264.885     329.307
  C      197.971    -267.357     328.728
  O      197.518    -266.014     328.612
  C      197.266    -268.237     327.694
  O      197.773    -269.587     327.764
  C      195.757    -268.344     327.900
  O      195.100    -267.171     327.468
  C      195.450    -269.591     327.077
  O      195.374    -269.275     325.679
  C      196.693    -270.469     327.378
  N      196.449    -271.480     328.408
  C      195.498    -272.449     328.108
  O      194.854    -272.460     327.059
  N      195.299    -273.408     329.071
  C      195.881    -273.435     330.306
  O      195.625    -274.291     331.156
  C      196.846    -272.361     330.578
  C      197.085    -271.452     329.635
  O      197.689    -263.631     329.659
  O      198.980    -265.625     330.611
  H      196.182    -268.768     325.459
  H      199.101    -264.978     331.333
  H      194.606    -274.114     328.876
  H      197.327    -272.351     331.552
  H      197.792    -270.651     329.821
  H      197.022    -270.987     326.463
  H      194.501    -270.051     327.351
  H      195.530    -268.556     328.952
  H      197.496    -267.839     326.695
  H      197.741    -267.722     329.732
  H      199.056    -267.380     328.581
  P      193.941    -266.507     328.351
  C      191.982    -267.963     327.574
  O      192.560    -266.668     327.539
  O      194.221    -265.124     328.839
  O      193.758    -267.525     329.575
  H      194.144    -267.139     330.388
  H      191.074    -267.964     327.008
  H      191.771    -268.232     328.588
  H      192.666    -268.670     327.153

 6  7  8  9  10  11  12  13  14  15  16  26  31  32  33  34  35 0
 6-311+G(2d,p)
 ****
 36  37 0
 6-311+G(2d,p)
 ****
 1  2  3  4  5  17  18  19  20  21  22  23  24  25 0
 3-21G
 ****
 27  28  29  30  38  39  40  41  42  43  44  45 0
 3-21G
 ****


