%nproc=1
%NoSave
%Mem=1900MB
#P OB98/GEN NMR

erre ene a

0 1
  C      226.563    -235.627    -203.035
  O      225.608    -234.920    -202.266
  P      226.067    -234.105    -200.967
  C      226.738    -231.847    -202.073
  O      227.163    -233.038    -201.449
  C      227.247    -230.612    -201.319
  O      226.836    -229.436    -202.056
  C      226.674    -230.441    -199.913
  O      227.512    -229.538    -199.187
  C      225.345    -229.782    -200.197
  O      224.817    -229.113    -199.052
  C      225.670    -228.868    -201.406
  N      224.545    -228.791    -202.349
  C      223.390    -228.162    -201.898
  O      223.306    -227.622    -200.793
  N      222.294    -228.264    -202.720
  C      222.251    -228.946    -203.901
  O      221.216    -229.277    -204.461
  C      223.555    -229.371    -204.430
  C      224.622    -229.301    -203.630
  O      226.918    -235.187    -200.150
  O      224.955    -233.544    -200.149
  H      224.902    -229.734    -198.294
  H      226.364    -235.606    -199.468
  H      221.419    -227.936    -202.327
  H      223.587    -229.782    -205.431
  H      225.589    -229.659    -203.980
  H      225.916    -227.849    -201.081
  H      224.618    -230.548    -200.494
  H      226.558    -231.377    -199.360
  H      228.346    -230.628    -201.287
  H      225.646    -231.838    -202.135
  H      227.105    -231.807    -203.107
  P      227.549    -229.670    -197.587
  C      229.265    -231.582    -197.652
  O      227.961    -231.185    -197.269
  O      226.343    -229.165    -196.865
  O      228.867    -228.850    -197.188
  H      228.832    -228.610    -196.243
  H      229.606    -232.365    -196.975
  H      229.968    -230.740    -197.612
  H      229.235    -231.976    -198.671
  H      226.074    -236.107    -203.857
  H      227.038    -236.365    -202.423
  H      227.298    -234.944    -203.406

 3  4  5  6  7  8  9  10  11  12  13  23  28  29  30  31  32 0
 6-311+G(2d,p)
 ****
 33  34 0
 6-311+G(2d,p)
 ****
 1  2  14  15  16  17  18  19  20  21  22  24  25  26  27 0
 3-21G
 ****
 35  36  37  38  39  40  41  42  43  44  45 0
 3-21G
 ****


