%nproc=1
%NoSave
%Mem=1900MB
#P OB98/GEN NMR

erre ene a

0 1
  C      363.983      -4.400      13.069
  O      362.635      -4.853      13.201
  P      361.556      -4.203      12.202
  C      361.164      -2.048      13.582
  O      361.608      -2.610      12.358
  C      361.303      -0.522      13.600
  O      360.821       0.031      14.854
  C      362.751      -0.043      13.435
  O      362.707       1.189      12.701
  C      363.184       0.249      14.850
  O      364.302       1.136      14.885
  C      361.882       0.811      15.443
  N      361.843       0.756      16.902
  C      361.221       1.825      17.561
  O      360.804       2.790      16.916
  N      361.127       1.798      18.929
  C      361.651       0.814      19.593
  N      361.527       0.846      20.947
  C      362.364      -0.302      18.943
  C      362.413      -0.268      17.613
  O      360.152      -4.607      12.857
  O      361.666      -4.711      10.798
  H      365.064       0.680      14.467
  H      359.570      -5.003      12.184
  H      362.809      -1.094      19.540
  H      362.914      -1.043      17.050
  H      361.738       1.853      15.137
  H      363.468      -0.687      15.363
  H      363.388      -0.758      12.908
  H      360.683      -0.113      12.796
  H      361.023       1.626      21.355
  H      361.740      -2.470      14.412
  H      361.896       0.135      21.559
  H      360.120      -2.347      13.751
  P      362.972       1.149      11.122
  C      365.457       1.803      11.259
  O      364.526       0.772      10.975
  O      362.992       2.713      10.759
  O      362.011       0.400      10.261
  H      363.073       2.831       9.798
  H      366.459       1.384      11.244
  H      365.265       2.224      12.251
  H      365.385       2.585      10.501
  H      364.600      -4.903      13.784
  H      364.023      -3.345      13.243
  H      364.336      -4.612      12.081

 3  4  5  6  7  8  9  10  11  12  13  21  23  27  28  29  30  32 0
 6-311+G(2d,p)
 ****
 34  35 0
 6-311+G(2d,p)
 ****
 1  2  14  15  16  17  18  19  20  22  24  25  26 0
 3-21G
 ****
 31  33  36  37  38  39  40  41  42  43  44  45  46 0
 3-21G
 ****


