%nproc=1
%NoSave
%Mem=1900MB
#P OB98/GEN NMR

erre ene a

0 1
  C     -136.982     -31.395     173.892
  O     -137.284     -32.241     174.979
  H     -136.918     -32.000     172.985
  H     -136.018     -30.908     174.060
  H     -137.757     -30.637     173.753
  P     -137.785     -31.587     176.351
  C     -135.531     -31.838     177.583
  O     -136.501     -30.941     177.065
  C     -134.346     -31.080     178.193
  O     -133.281     -32.012     178.499
  C     -133.781     -30.074     177.187
  O     -133.180     -28.953     177.828
  C     -132.705     -30.878     176.475
  O     -131.719     -30.060     175.851
  C     -132.172     -31.733     177.624
  N     -128.226     -33.984     175.320
  C     -128.513     -32.639     175.447
  N     -127.644     -31.783     174.864
  N     -129.563     -32.179     176.073
  C     -130.382     -33.152     176.540
  C     -130.217     -34.516     176.456
  C     -129.030     -35.012     175.794
  O     -128.733     -36.193     175.637
  N     -131.269     -35.185     177.032
  C     -132.069     -34.230     177.459
  N     -131.567     -32.978     177.197
  O     -138.101     -32.850     177.283
  O     -138.971     -30.677     176.240
  H     -131.074     -30.653     175.423
  H     -138.755     -32.615     177.964
  H     -127.394     -34.284     174.841
  H     -133.014     -34.389     177.965
  H     -131.418     -31.181     178.200
  H     -133.180     -31.469     175.688
  H     -126.927     -32.093     174.227
  H     -134.542     -29.719     176.490
  H     -127.986     -30.833     174.693
  H     -134.641     -30.613     179.138
  H     -135.188     -32.460     176.749
  H     -135.986     -32.502     178.322
  P     -134.152     -27.799     178.368
  C     -134.295     -26.387     176.162
  O     -134.951     -27.206     177.111
  O     -133.148     -26.627     178.785
  O     -135.019     -28.227     179.503
  H     -133.072     -26.578     179.755
  H     -134.990     -26.092     175.404
  H     -133.490     -26.933     175.715
  H     -133.908     -25.516     176.649

 6  7  8  9  10  11  12  13  14  15  26  29  33  34 0
 6-311+G(2d,p)
 ****
 36  38  39  40  41 0
 6-311+G(2d,p)
 ****
 1  2  3  4  5  16  17  18  19  20  21  22  23  24  25 0
 3-21G
 ****
 27  28  30  31  32  35  37  42  43  44  45  46  47 0
 3-21G
 ****
 48  49 0
 3-21G
 ****


