%nproc=1
%NoSave
%Mem=1900MB
#P OB98/GEN NMR

erre ene a

0 1
  C     -211.170      64.407      17.467
  O     -212.609      64.466      17.525
  P     -213.435      63.102      17.747
  C     -213.386      61.967      15.396
  O     -212.920      61.966      16.739
  C     -212.514      61.060      14.501
  O     -212.944      61.179      13.108
  C     -211.016      61.385      14.543
  O     -210.313      60.142      14.365
  C     -210.834      62.270      13.318
  O     -209.493      62.346      12.872
  C     -211.786      61.566      12.337
  N     -212.178      62.391      11.190
  C     -211.242      62.580      10.174
  O     -210.089      62.151      10.202
  N     -211.671      63.319       9.102
  C     -212.897      63.911       8.964
  O     -213.207      64.588       7.990
  C     -213.829      63.701      10.079
  C     -213.436      62.969      11.124
  O     -214.865      63.483      17.135
  O     -213.578      62.667      19.170
  H     -209.503      62.668      11.950
  H     -215.572      63.184      17.742
  H     -211.015      63.448       8.347
  H     -214.811      64.149      10.008
  H     -214.114      62.788      11.951
  H     -211.317      60.641      11.971
  H     -211.167      63.288      13.554
  H     -210.706      61.871      15.477
  H     -212.694      60.019      14.797
  H     -213.360      62.990      15.005
  H     -214.427      61.618      15.381
  P     -209.929      59.292      15.671
  C     -207.610      60.383      16.197
  O     -208.961      60.197      16.571
  O     -208.933      58.208      15.025
  O     -211.099      58.664      16.370
  H     -208.288      58.612      14.420
  H     -207.512      60.532      15.116
  H     -207.021      59.517      16.503
  H     -207.221      61.275      16.703
  H     -210.778      65.391      17.316
  H     -210.871      63.776      16.656
  H     -210.792      64.010      18.386

 3  4  5  6  7  8  9  10  11  12  13  23  28  29  30  31  32 0
 6-311+G(2d,p)
 ****
 33  34 0
 6-311+G(2d,p)
 ****
 1  2  14  15  16  17  18  19  20  21  22  24  25  26 0
 3-21G
 ****
 27  35  36  37  38  39  40  41  42  43  44  45 0
 3-21G
 ****


