%nproc=1
%NoSave
%Mem=1900MB
#P OB98/GEN NMR

erre ene a

0 1
  C     -397.110    -980.026      35.999
  O     -397.728    -979.253      34.991
  H     -397.242    -979.521      36.956
  H     -396.040    -980.123      35.794
  H     -397.569    -981.016      36.052
  P     -397.624    -979.820      33.492
  C     -395.711    -980.911      32.125
  O     -396.061    -980.088      33.226
  C     -394.382    -980.461      31.523
  O     -393.392    -980.279      32.559
  C     -393.782    -981.430      30.513
  O     -394.362    -981.253      29.229
  C     -392.316    -981.033      30.552
  O     -392.058    -979.864      29.744
  C     -392.107    -980.720      32.044
  N     -388.036    -982.817      34.168
  C     -388.172    -981.621      33.496
  N     -387.046    -980.895      33.324
  N     -389.306    -981.176      33.033
  C     -390.344    -982.017      33.253
  C     -390.334    -983.226      33.916
  C     -389.077    -983.692      34.452
  O     -388.896    -984.713      35.110
  N     -391.589    -983.780      33.952
  C     -392.343    -982.935      33.276
  N     -391.628    -981.860      32.818
  O     -397.932    -978.531      32.582
  O     -398.538    -980.950      33.169
  H     -392.212    -980.085      28.810
  H     -398.362    -978.823      31.760
  H     -387.136    -983.101      34.518
  H     -393.399    -983.053      33.091
  H     -391.390    -979.908      32.197
  H     -391.671    -981.827      30.167
  H     -386.129    -981.323      33.357
  H     -393.895    -982.467      30.856
  H     -387.135    -980.022      32.813
  H     -394.550    -979.480      31.058
  H     -396.492    -980.844      31.361
  H     -395.638    -981.951      32.460
  P     -394.784    -982.577      28.415
  C     -393.459    -984.540      27.339
  O     -393.423    -983.220      27.863
  O     -395.481    -981.988      27.097
  O     -395.682    -983.512      29.158
  H     -396.002    -982.684      26.664
  H     -392.479    -984.822      27.015
  H     -394.134    -984.576      26.509
  H     -393.791    -985.216      28.099

 6  7  8  9  10  11  12  13  14  15  26  29  33  34 0
 6-311+G(2d,p)
 ****
 36  38  39  40  41 0
 6-311+G(2d,p)
 ****
 1  2  3  4  5  16  17  18  19  20  21  22  23  24  25 0
 3-21G
 ****
 27  28  30  31  32  35  37  42  43  44  45  46  47 0
 3-21G
 ****
 48  49 0
 3-21G
 ****


