%nproc=1
%NoSave
%Mem=1900MB
#P OB98/GEN NMR

erre ene a

0 1
  C      -64.140     142.427    -324.990
  O      -62.718     142.572    -325.055
  P      -61.875     141.208    -325.128
  C      -60.819     141.096    -322.760
  O      -61.814     140.590    -323.641
  C      -60.586     140.133    -321.587
  O      -61.840     139.845    -320.898
  C      -59.979     138.783    -322.011
  O      -59.108     138.371    -320.950
  C      -61.215     137.892    -322.075
  O      -60.904     136.504    -322.082
  C      -61.965     138.409    -320.847
  N      -65.263     134.940    -319.060
  C      -63.922     135.062    -318.927
  N      -63.111     136.020    -319.438
  C      -63.829     136.908    -320.142
  C      -65.198     136.915    -320.365
  C      -65.930     135.872    -319.784
  N      -67.294     135.727    -319.928
  N      -65.559     138.000    -321.165
  C      -64.409     138.577    -321.478
  N      -63.353     138.007    -320.816
  O      -60.379     141.704    -325.398
  O      -62.363     140.255    -326.174
  H      -60.540     136.242    -321.211
  H      -60.158     141.625    -326.347
  H      -63.432     134.289    -318.337
  H      -64.289     139.406    -322.162
  H      -61.508     138.064    -319.912
  H      -61.773     138.104    -322.991
  H      -59.417     138.829    -322.948
  H      -59.921     140.627    -320.863
  H      -61.126     142.067    -322.361
  H      -67.732     134.939    -319.470
  H      -67.825     136.388    -320.469
  H      -59.892     141.271    -323.326
  P      -57.669     139.087    -320.818
  C      -56.711     136.703    -320.836
  O      -56.627     138.001    -321.386
  O      -57.429     138.952    -319.236
  O      -57.576     140.487    -321.337
  H      -57.577     138.039    -318.931
  H      -56.006     136.055    -321.358
  H      -57.723     136.306    -320.952
  H      -56.442     136.728    -319.766
  H      -64.595     143.394    -324.945
  H      -64.402     141.868    -324.116
  H      -64.486     141.910    -325.861

 3  4  5  6  7  8  9  10  11  12  22  25  29  30  31  32 0
 6-311+G(2d,p)
 ****
 33  36  37 0
 6-311+G(2d,p)
 ****
 1  2  13  14  15  16  17  18  19  20  21  23  24  26 0
 3-21G
 ****
 27  28  34  35  38  39  40  41  42  43  44  45  46  47  48 0
 3-21G
 ****


