%nproc=1
%NoSave
%Mem=1900MB
#P OB98/GEN NMR

erre ene a

0 1
  C      -14.250    -248.758    -182.029
  O      -15.381    -249.522    -182.415
  P      -15.301    -250.271    -183.836
  C      -17.766    -249.618    -184.396
  O      -16.400    -249.575    -184.772
  C      -18.379    -248.220    -184.518
  O      -17.503    -247.238    -183.928
  C      -18.622    -247.768    -185.953
  O      -19.833    -248.312    -186.447
  C      -18.650    -246.252    -185.792
  O      -19.937    -245.808    -185.320
  C      -17.564    -246.025    -184.729
  N      -14.849    -242.638    -187.320
  C      -16.213    -242.699    -187.090
  N      -16.950    -241.681    -187.588
  N      -16.797    -243.663    -186.431
  C      -15.937    -244.617    -186.008
  C      -14.575    -244.678    -186.185
  C      -13.934    -243.579    -186.869
  O      -12.722    -243.431    -187.013
  N      -14.044    -245.814    -185.628
  C      -15.082    -246.420    -185.087
  N      -16.251    -245.727    -185.269
  O      -15.910    -251.711    -183.521
  O      -13.933    -250.341    -184.443
  H      -20.202    -246.350    -184.556
  H      -15.197    -252.365    -183.379
  H      -14.452    -241.862    -187.820
  H      -15.037    -247.349    -184.538
  H      -17.823    -245.204    -184.046
  H      -18.469    -245.733    -186.736
  H      -16.572    -240.916    -188.125
  H      -17.779    -248.055    -186.593
  H      -17.951    -241.708    -187.430
  H      -19.318    -248.214    -183.949
  H      -17.844    -249.955    -183.359
  H      -18.295    -250.328    -185.039
  P      -19.730    -249.397    -187.625
  C      -21.147    -247.908    -189.213
  O      -19.934    -248.613    -189.005
  O      -21.075    -250.246    -187.459
  O      -18.521    -250.270    -187.558
  H      -20.899    -251.181    -187.678
  H      -20.952    -247.059    -189.870
  H      -21.569    -247.542    -188.275
  H      -21.869    -248.572    -189.698
  H      -14.429    -248.314    -181.072
  H      -14.076    -247.989    -182.752
  H      -13.392    -249.395    -181.972

 3  4  5  6  7  8  9  10  11  12  23  26  30  31 0
 6-311+G(2d,p)
 ****
 33  35  36  37  38 0
 6-311+G(2d,p)
 ****
 1  2  13  14  15  16  17  18  19  20  21  22  24  25 0
 3-21G
 ****
 27  28  29  32  34  39  40  41  42  43  44  45  46  47  48  49 0
 3-21G
 ****


