%nproc=1
%NoSave
%Mem=1900MB
#P OB98/GEN NMR

erre ene a

0 1
  C     -289.633     320.346    -152.733
  O     -290.553     319.602    -151.962
  H     -289.862     321.414    -152.670
  H     -288.626     320.175    -152.342
  H     -289.666     320.019    -153.777
  P     -292.105     319.801    -152.315
  C     -292.706     321.561    -150.508
  O     -292.479     321.302    -151.886
  C     -294.131     322.055    -150.292
  O     -294.268     323.406    -150.781
  C     -295.202     321.252    -151.020
  O     -295.513     320.041    -150.341
  C     -296.365     322.234    -150.979
  O     -297.008     322.170    -149.692
  C     -295.662     323.589    -151.150
  N     -298.037     326.865    -154.311
  C     -298.220     326.583    -153.000
  N     -297.563     325.696    -152.230
  C     -296.608     325.065    -152.935
  C     -296.304     325.248    -154.275
  C     -297.071     326.195    -154.979
  N     -296.886     326.463    -156.319
  N     -295.254     324.441    -154.651
  C     -294.926     323.776    -153.560
  N     -295.723     324.118    -152.498
  O     -292.858     318.906    -151.215
  O     -292.502     319.412    -153.700
  H     -297.572     322.966    -149.623
  H     -293.649     318.507    -151.622
  H     -299.005     327.152    -152.505
  H     -294.125     323.052    -153.493
  H     -296.074     324.345    -150.470
  H     -297.127     322.030    -151.735
  H     -294.921     321.068    -152.063
  H     -294.322     322.071    -149.210
  H     -292.003     322.327    -150.161
  H     -297.324     327.277    -156.711
  H     -296.153     325.956    -156.808
  H     -292.532     320.638    -149.944
  P     -296.321     318.921    -151.161
  C     -298.589     319.454    -150.020
  O     -297.836     319.443    -151.227
  O     -296.395     317.702    -150.128
  O     -295.700     318.516    -152.455
  H     -296.495     316.859    -150.614
  H     -299.573     319.824    -150.217
  H     -298.107     320.087    -149.304
  H     -298.653     318.459    -149.631

 6  7  8  9  10  11  12  13  14  15  25  28  32  33  34  35 0
 6-311+G(2d,p)
 ****
 36  39  40 0
 6-311+G(2d,p)
 ****
 1  2  3  4  5  16  17  18  19  20  21  22  23  24 0
 3-21G
 ****
 26  27  29  30  31  37  38  41  42  43  44  45  46  47  48 0
 3-21G
 ****


