%nproc=1
%NoSave
%Mem=1900MB
#P OB98/GEN NMR

erre ene a

0 1
  C      -32.839    1326.921    1248.402
  O      -31.492    1326.556    1248.635
  H      -32.899    1327.371    1247.403
  H      -33.163    1327.633    1249.141
  H      -33.467    1326.031    1248.421
  P      -31.133    1325.959    1250.073
  C      -31.806    1328.087    1251.417
  O      -30.757    1327.200    1251.011
  C      -31.403    1328.740    1252.757
  O      -31.183    1327.734    1253.750
  C      -30.127    1329.578    1252.687
  O      -30.323    1330.861    1252.089
  C      -29.759    1329.653    1254.157
  O      -30.457    1330.750    1254.808
  C      -30.245    1328.292    1254.718
  N      -29.124    1327.399    1254.962
  C      -28.251    1327.734    1255.977
  O      -28.429    1328.753    1256.668
  N      -27.179    1326.937    1256.208
  C      -26.854    1325.837    1255.462
  O      -25.823    1325.179    1255.647
  C      -27.760    1325.492    1254.332
  C      -28.855    1326.295    1254.145
  O      -29.726    1325.213    1249.843
  O      -32.156    1325.031    1250.653
  H      -29.869    1324.245    1249.850
  H      -30.130    1331.571    1254.360
  H      -26.570    1327.180    1256.936
  H      -27.531    1324.669    1253.712
  H      -29.525    1326.061    1253.329
  H      -30.780    1328.419    1255.660
  H      -28.700    1329.841    1254.297
  H      -29.343    1328.992    1252.157
  H      -32.256    1329.396    1253.064
  H      -32.733    1327.532    1251.569
  H      -31.948    1328.838    1250.640
  P      -29.835    1331.042    1250.547
  C      -27.252    1330.723    1251.024
  O      -28.333    1331.599    1250.631
  O      -30.735    1332.308    1250.151
  O      -30.081    1329.828    1249.732
  H      -30.933    1332.894    1250.933
  H      -26.332    1331.269    1251.022
  H      -27.185    1329.908    1250.334
  H      -27.440    1330.344    1252.007

 6  7  8  9  10  11  12  13  14  15  16  27  31  32  33  34  35 0
 6-311+G(2d,p)
 ****
 36  37 0
 6-311+G(2d,p)
 ****
 1  2  3  4  5  17  18  19  20  21  22  23  24  25 0
 3-21G
 ****
 26  28  29  30  38  39  40  41  42  43  44  45 0
 3-21G
 ****


