%nproc=1
%NoSave
%Mem=1900MB
#P OB98/GEN NMR

erre ene a

0 1
  C      686.499     198.909     191.420
  O      687.357     199.695     190.625
  P      688.865     199.984     191.102
  C      688.547     202.442     190.401
  O      688.936     201.548     191.440
  C      687.762     203.613     190.978
  O      686.693     203.152     191.840
  C      688.587     204.540     191.863
  O      689.620     205.279     191.246
  C      687.496     205.329     192.569
  O      686.998     206.382     191.750
  C      686.408     204.235     192.761
  N      686.344     203.769     194.148
  C      685.385     204.373     194.948
  O      684.620     205.251     194.551
  N      685.342     203.956     196.255
  C      686.187     203.052     196.832
  O      686.124     202.753     198.016
  C      687.187     202.457     195.941
  C      687.226     202.839     194.661
  O      689.925     199.500     190.166
  O      688.929     199.313     192.556
  H      687.738     207.007     191.601
  H      688.293     199.681     193.198
  H      684.665     204.393     196.856
  H      687.865     201.723     196.363
  H      687.964     202.416     193.979
  H      685.425     204.632     192.488
  H      687.863     205.781     193.497
  H      689.084     203.926     192.625
  H      687.297     204.161     190.145
  H      687.910     201.900     189.690
  H      689.433     202.781     189.857
  P      691.177     205.028     191.525
  C      691.367     207.524     192.200
  O      691.706     206.188     192.494
  O      692.023     204.671     190.341
  O      691.121     203.767     192.524
  H      691.919     203.219     192.390
  H      691.844     208.179     192.933
  H      690.284     207.664     192.262
  H      691.714     207.797     191.199
  H      685.545     198.828     190.943
  H      686.380     199.369     192.379
  H      686.920     197.933     191.542

 3  4  5  6  7  8  9  10  11  12  13  23  28  29  30  31  32 0
 6-311+G(2d,p)
 ****
 33  34 0
 6-311+G(2d,p)
 ****
 1  2  14  15  16  17  18  19  20  21  22  24  25  26  27 0
 3-21G
 ****
 35  36  37  38  39  40  41  42  43  44  45 0
 3-21G
 ****


