%nproc=1
%NoSave
%Mem=1900MB
#P OB98/GEN NMR

erre ene a

0 1
  C      -46.081      44.000     -14.462
  O      -46.434      45.314     -14.025
  P      -45.896      46.526     -14.930
  C      -47.954      47.913     -14.187
  O      -46.548      47.885     -14.373
  C      -48.366      47.169     -12.913
  O      -47.798      47.805     -11.729
  C      -49.883      47.103     -12.698
  O      -50.162      45.843     -12.073
  C      -50.129      48.216     -11.699
  O      -51.383      48.062     -11.039
  C      -48.892      48.056     -10.818
  N      -50.167      50.434      -6.552
  C      -50.728      49.323      -7.152
  N      -51.745      48.729      -6.493
  N      -50.322      48.837      -8.296
  C      -49.269      49.512      -8.821
  C      -48.621      50.613      -8.316
  C      -49.099      51.160      -7.065
  O      -48.637      52.138      -6.489
  N      -47.575      50.995      -9.124
  C      -47.646      50.159     -10.146
  N      -48.618      49.210      -9.984
  O      -46.635      46.292     -16.330
  O      -44.410      46.548     -15.082
  H      -52.060      47.894     -11.729
  H      -46.027      45.868     -16.964
  H      -50.529      50.777      -5.678
  H      -47.005      50.182     -11.012
  H      -48.976      47.198     -10.137
  H      -50.125      49.189     -12.206
  H      -52.072      49.022      -5.586
  H      -50.474      47.212     -13.611
  H      -52.145      47.888      -6.892
  H      -47.957      46.152     -12.963
  H      -48.453      47.453     -15.044
  H      -48.291      48.955     -14.163
  P      -51.051      44.786     -12.882
  C      -49.824      42.630     -12.150
  O      -51.004      43.404     -12.078
  O      -50.164      44.491     -14.186
  O      -52.410      45.277     -13.263
  H      -50.746      44.402     -14.962
  H      -49.748      42.019     -11.249
  H      -48.930      43.255     -12.228
  H      -49.877      41.969     -13.020
  H      -46.491      43.278     -13.787
  H      -45.015      43.905     -14.482
  H      -46.472      43.833     -15.444

 3  4  5  6  7  8  9  10  11  12  23  26  30  31 0
 6-311+G(2d,p)
 ****
 33  35  36  37  38 0
 6-311+G(2d,p)
 ****
 1  2  13  14  15  16  17  18  19  20  21  22  24  25 0
 3-21G
 ****
 27  28  29  32  34  39  40  41  42  43  44  45  46  47  48  49 0
 3-21G
 ****


