%nproc=1
%NoSave
%Mem=1900MB
#P OB98/GEN NMR

erre ene a

0 1
  C      -55.812     141.017    -499.432
  O      -56.186     142.339    -499.103
  H      -55.661     140.459    -498.505
  H      -54.873     141.023    -499.990
  H      -56.593     140.525    -500.016
  P      -56.607     143.343    -500.280
  C      -58.574     144.543    -499.115
  O      -57.238     144.649    -499.588
  C      -58.593     144.183    -497.626
  O      -57.770     145.140    -496.909
  C      -59.994     144.211    -497.006
  O      -60.102     143.159    -496.048
  C      -60.039     145.553    -496.302
  O      -60.956     145.561    -495.209
  C      -58.583     145.736    -495.877
  N      -55.914     149.014    -493.109
  C      -55.961     147.636    -493.057
  N      -55.200     147.039    -492.115
  N      -56.694     146.905    -493.857
  C      -57.388     147.636    -494.763
  C      -57.426     149.002    -494.916
  C      -56.626     149.799    -494.013
  O      -56.556     151.023    -494.002
  N      -58.267     149.362    -495.940
  C      -58.736     148.219    -496.402
  N      -58.244     147.142    -495.713
  O      -57.453     142.736    -501.354
  O      -55.216     143.875    -500.860
  H      -61.860     145.582    -495.595
  H      -55.013     143.460    -501.718
  H      -55.341     149.530    -492.464
  H      -59.435     148.114    -497.222
  H      -58.358     145.241    -494.927
  H      -60.345     146.334    -497.010
  H      -54.595     147.538    -491.481
  H      -60.780     144.111    -497.754
  H      -55.193     146.028    -492.074
  H      -58.126     143.200    -497.500
  H      -59.079     143.760    -499.688
  H      -59.091     145.493    -499.281
  P      -60.932     141.837    -496.435
  C      -59.972     139.865    -495.097
  O      -60.978     140.866    -495.157
  O      -60.526     141.179    -497.712
  O      -62.440     142.378    -496.519
  H      -62.912     141.887    -497.222
  H      -60.101     139.282    -494.209
  H      -59.008     140.329    -495.082
  H      -60.049     139.230    -495.955

 6  7  8  9  10  11  12  13  14  15  26  29  33  34 0
 6-311+G(2d,p)
 ****
 36  38  39  40  41 0
 6-311+G(2d,p)
 ****
 1  2  3  4  5  16  17  18  19  20  21  22  23  24  25 0
 3-21G
 ****
 27  28  30  31  32  35  37  42  43  44  45  46  47 0
 3-21G
 ****
 48  49 0
 3-21G
 ****


