%nproc=1
%NoSave
%Mem=1900MB
#P OB98/GEN NMR

erre ene a

0 1
  C     -616.073    -171.616     -30.029
  O     -616.781    -172.001     -31.191
  H     -615.027    -171.433     -30.299
  H     -616.114    -172.408     -29.280
  H     -616.500    -170.695     -29.617
  P     -618.344    -172.324     -31.012
  C     -618.128    -174.666     -32.115
  O     -618.720    -173.380     -32.172
  C     -617.804    -175.166     -33.522
  O     -618.952    -174.913     -34.392
  C     -616.585    -174.481     -34.166
  O     -615.858    -175.446     -34.938
  C     -617.213    -173.472     -35.111
  O     -616.335    -173.096     -36.175
  C     -618.454    -174.237     -35.566
  N     -619.248    -170.785     -39.143
  C     -618.117    -171.524     -38.854
  N     -617.030    -171.314     -39.626
  N     -618.056    -172.401     -37.872
  C     -619.230    -172.527     -37.202
  C     -620.414    -171.849     -37.387
  C     -620.458    -170.863     -38.453
  O     -621.417    -170.161     -38.754
  N     -621.360    -172.237     -36.473
  C     -620.755    -173.158     -35.735
  N     -619.459    -173.367     -36.143
  O     -619.057    -170.970     -31.488
  O     -618.767    -172.731     -29.637
  H     -616.843    -172.558     -36.811
  H     -619.906    -170.843     -31.016
  H     -619.234    -170.117     -39.896
  H     -621.190    -173.684     -34.900
  H     -618.222    -174.999     -36.324
  H     -617.491    -172.560     -34.559
  H     -617.008    -170.688     -40.404
  H     -615.913    -174.012     -33.444
  H     -616.189    -171.855     -39.428
  H     -617.671    -176.257     -33.495
  H     -618.820    -175.362     -31.631
  H     -617.204    -174.612     -31.527
  P     -614.534    -176.074     -34.281
  C     -612.704    -175.177     -35.908
  O     -613.445    -176.309     -35.440
  O     -614.990    -177.560     -33.897
  O     -614.043    -175.329     -33.074
  H     -615.080    -177.639     -32.936
  H     -612.023    -175.488     -36.673
  H     -612.156    -174.749     -35.095
  H     -613.379    -174.448     -36.306

 6  7  8  9  10  11  12  13  14  15  26  29  33  34 0
 6-311+G(2d,p)
 ****
 36  38  39  40  41 0
 6-311+G(2d,p)
 ****
 1  2  3  4  5  16  17  18  19  20  21  22  23  24  25 0
 3-21G
 ****
 27  28  30  31  32  35  37  42  43  44  45  46  47 0
 3-21G
 ****
 48  49 0
 3-21G
 ****


