%nproc=1
%NoSave
%Mem=1900MB
#P OB98/GEN NMR

erre ene a

0 1
  C      479.696     232.938     202.793
  O      478.643     232.000     202.885
  H      479.278     233.904     202.499
  H      480.415     232.626     202.031
  H      480.198     233.054     203.757
  P      478.971     230.517     203.399
  C      478.242     231.086     205.798
  O      479.299     230.634     204.966
  C      477.934     230.057     206.884
  O      477.268     228.920     206.272
  C      479.177     229.541     207.613
  O      478.849     229.355     208.988
  C      479.432     228.193     206.960
  O      480.125     227.296     207.828
  C      478.016     227.738     206.620
  N      479.429     223.097     205.205
  C      479.514     223.720     206.435
  N      480.086     223.015     207.435
  N      479.082     224.933     206.665
  C      478.518     225.518     205.577
  C      478.377     225.005     204.310
  C      478.871     223.670     204.067
  O      478.835     223.073     202.995
  N      477.780     225.917     203.475
  C      477.565     226.975     204.232
  N      478.007     226.787     205.518
  O      479.998     229.776     202.605
  O      477.554     229.776     203.375
  H      479.527     227.104     208.581
  H      477.470     229.217     202.579
  H      479.786     222.166     205.082
  H      477.106     227.899     203.909
  H      477.516     227.248     207.468
  H      480.031     228.328     206.054
  H      480.426     222.071     207.337
  H      480.037     230.211     207.518
  H      480.139     223.444     208.352
  H      477.219     230.501     207.589
  H      477.355     231.242     205.170
  H      478.522     232.043     206.255
  P      479.532     230.315     210.082
  C      477.187     231.070     210.841
  O      478.490     231.484     210.434
  O      480.917     230.769     209.766
  O      479.503     229.414     211.410
  H      480.265     229.662     211.970
  H      476.587     231.932     211.047
  H      477.263     230.469     211.723
  H      476.734     230.499     210.058

 6  7  8  9  10  11  12  13  14  15  26  29  33  34 0
 6-311+G(2d,p)
 ****
 36  38  39  40  41 0
 6-311+G(2d,p)
 ****
 1  2  3  4  5  16  17  18  19  20  21  22  23  24  25 0
 3-21G
 ****
 27  28  30  31  32  35  37  42  43  44  45  46  47 0
 3-21G
 ****
 48  49 0
 3-21G
 ****


