%nproc=1
%NoSave
%Mem=1900MB
#P OB98/GEN NMR

erre ene a

0 1
  C     -285.874     864.874    1018.385
  O     -284.713     864.956    1017.577
  H     -286.391     865.834    1018.356
  H     -285.600     864.651    1019.419
  H     -286.538     864.099    1018.002
  P     -283.748     863.673    1017.565
  C     -284.481     862.110    1015.623
  O     -284.609     862.447    1017.001
  C     -284.162     860.622    1015.483
  O     -282.790     860.381    1015.898
  C     -285.008     859.718    1016.380
  O     -286.301     859.483    1015.850
  C     -284.151     858.462    1016.404
  O     -284.409     857.626    1015.266
  C     -282.726     859.024    1016.379
  N     -282.084     858.945    1017.688
  C     -281.098     857.960    1017.822
  O     -280.782     857.201    1016.907
  N     -280.525     857.847    1019.053
  C     -280.863     858.574    1020.161
  O     -280.351     858.382    1021.262
  C     -281.919     859.587    1019.973
  C     -282.479     859.716    1018.767
  O     -283.573     863.334    1019.118
  O     -282.434     863.882    1016.881
  H     -282.677     863.596    1019.410
  H     -284.311     858.196    1014.485
  H     -279.811     857.144    1019.168
  H     -282.212     860.179    1020.833
  H     -283.258     860.444    1018.599
  H     -282.104     858.461    1015.658
  H     -284.371     857.872    1017.287
  H     -285.064     860.129    1017.393
  H     -284.265     860.331    1014.442
  H     -283.679     862.685    1015.171
  H     -285.423     862.357    1015.109
  P     -287.461     859.045    1016.875
  C     -288.577     861.444    1016.797
  O     -287.965     860.413    1017.561
  O     -286.606     858.302    1017.999
  O     -288.514     858.207    1016.238
  H     -285.690     858.647    1018.037
  H     -288.835     862.259    1017.440
  H     -289.462     861.065    1016.330
  H     -287.895     861.784    1016.046

 6  7  8  9  10  11  12  13  14  15  16  27  31  32  33  34  35 0
 6-311+G(2d,p)
 ****
 36  37 0
 6-311+G(2d,p)
 ****
 1  2  3  4  5  17  18  19  20  21  22  23  24  25 0
 3-21G
 ****
 26  28  29  30  38  39  40  41  42  43  44  45 0
 3-21G
 ****


