%nproc=1
%NoSave
%Mem=1900MB
#P OB98/GEN NMR

erre ene a

0 1
  C        6.429      55.601       8.250
  O        5.770      54.723       9.144
  H        7.068      55.012       7.586
  H        7.059      56.311       8.795
  H        5.699      56.145       7.646
  P        4.892      55.360      10.323
  C        6.815      54.717      11.930
  O        5.934      55.740      11.477
  C        7.721      55.255      13.033
  O        8.506      56.358      12.539
  C        6.952      55.795      14.230
  O        6.455      54.741      15.029
  C        8.009      56.667      14.878
  O        8.926      55.885      15.654
  C        8.710      57.274      13.641
  N        8.220      58.607      13.312
  C        8.918      59.677      13.883
  O        9.888      59.470      14.609
  N        8.480      60.953      13.628
  C        7.453      61.146      12.863
  N        7.071      62.434      12.652
  C        6.698      60.048      12.231
  C        7.129      58.817      12.499
  O        3.713      54.565      10.793
  O        4.461      56.788       9.740
  H        9.671      56.480      15.865
  H        3.618      56.717       9.255
  H        5.851      60.256      11.595
  H        6.632      57.952      12.072
  H        9.793      57.337      13.804
  H        7.565      57.409      15.539
  H        6.137      56.444      13.893
  H        8.411      54.457      13.333
  H        7.613      63.156      13.115
  H        7.413      54.401      11.069
  H        6.346      62.708      12.009
  H        6.248      53.853      12.294
  P        5.288      55.006      16.096
  C        6.902      55.059      18.108
  O        5.989      55.801      17.304
  O        4.501      53.803      16.493
  O        4.403      56.139      15.390
  H        3.862      55.767      14.652
  H        7.300      55.693      18.873
  H        7.700      54.693      17.496
  H        6.391      54.234      18.559

 6  7  8  9  10  11  12  13  14  15  16  26  30  31  32  33  35 0
 6-311+G(2d,p)
 ****
 37  38 0
 6-311+G(2d,p)
 ****
 1  2  3  4  5  17  18  19  20  21  22  23  24  25 0
 3-21G
 ****
 27  28  29  34  36  39  40  41  42  43  44  45  46 0
 3-21G
 ****


