%nproc=1
%NoSave
%Mem=1900MB
#P OB98/GEN NMR

erre ene a

0 1
  C      239.007     479.338    2093.785
  O      239.183     480.695    2094.239
  P      240.189     481.748    2093.578
  C      238.154     483.023    2092.473
  O      239.428     482.435    2092.334
  C      237.677     483.647    2091.159
  O      238.657     484.689    2090.775
  C      237.625     482.640    2089.986
  O      236.478     482.797    2089.177
  C      238.977     482.799    2089.324
  O      239.027     482.330    2087.982
  C      239.241     484.305    2089.510
  N      243.250     486.063    2086.812
  C      241.973     485.727    2086.389
  N      241.713     485.834    2085.064
  N      241.030     485.279    2087.173
  C      241.422     485.107    2088.451
  C      242.662     485.413    2089.024
  C      243.661     485.952    2088.139
  O      244.798     486.279    2088.462
  N      242.679     485.113    2090.376
  C      241.485     484.673    2090.608
  N      240.664     484.635    2089.521
  O      241.597     481.305    2093.365
  O      240.205     482.947    2094.675
  H      238.579     483.012    2087.434
  H      241.098     483.347    2094.618
  H      243.922     486.411    2086.158
  H      241.142     484.332    2091.613
  H      238.787     484.904    2088.734
  H      239.720     482.225    2089.900
  H      242.430     486.073    2084.369
  H      237.529     481.612    2090.373
  H      240.870     485.363    2084.721
  H      236.705     484.149    2091.319
  H      238.245     483.766    2093.246
  H      237.431     482.267    2092.833
  P      234.965     482.258    2089.421
  C      234.269     484.725    2089.151
  O      234.094     483.510    2089.917
  O      235.079     481.371    2090.772
  O      234.395     481.469    2088.293
  H      234.800     480.468    2090.554
  H      233.828     485.554    2089.754
  H      233.743     484.648    2088.217
  H      235.311     484.933    2089.017
  H      238.278     478.849    2094.397
  H      239.938     478.816    2093.853
  H      238.674     479.342    2092.768

 3  4  5  6  7  8  9  10  11  12  23  26  30  31 0
 6-311+G(2d,p)
 ****
 33  35  36  37  38 0
 6-311+G(2d,p)
 ****
 1  2  13  14  15  16  17  18  19  20  21  22  24  25 0
 3-21G
 ****
 27  28  29  32  34  39  40  41  42  43  44  45  46  47  48  49 0
 3-21G
 ****


