%nproc=1
%NoSave
%Mem=1900MB
#P OB98/GEN NMR

erre ene a

0 1
  C      420.749    -195.140    -934.688
  O      420.190    -196.062    -935.622
  P      419.145    -195.488    -936.699
  C      416.985    -195.847    -935.233
  O      417.874    -194.942    -935.884
  C      415.634    -195.171    -934.955
  O      415.030    -194.782    -936.208
  C      414.594    -196.060    -934.263
  O      413.587    -195.217    -933.678
  C      414.015    -196.813    -935.434
  O      412.753    -197.397    -935.116
  C      413.982    -195.737    -936.542
  N      414.203    -196.270    -937.906
  C      413.107    -196.767    -938.603
  O      411.957    -196.774    -938.168
  N      413.367    -197.289    -939.856
  C      414.591    -197.337    -940.451
  O      414.789    -197.905    -941.527
  C      415.691    -196.679    -939.721
  C      415.449    -196.205    -938.507
  O      418.608    -196.801    -937.432
  O      419.740    -194.508    -937.646
  H      412.916    -198.000    -934.350
  H      418.996    -196.873    -938.323
  H      412.596    -197.709    -940.342
  H      416.663    -196.638    -940.212
  H      416.264    -195.730    -937.951
  H      413.020    -195.201    -936.557
  H      414.687    -197.627    -935.729
  H      415.004    -196.734    -933.502
  H      415.797    -194.259    -934.367
  H      417.441    -196.203    -934.309
  H      416.824    -196.725    -935.874
  P      413.421    -195.235    -932.085
  C      411.578    -196.934    -931.508
  O      412.963    -196.734    -931.692
  O      412.603    -194.133    -931.500
  O      414.938    -195.194    -931.564
  H      414.970    -194.901    -930.639
  H      411.343    -197.968    -931.761
  H      410.978    -196.266    -932.139
  H      411.326    -196.762    -930.456
  H      421.423    -195.657    -934.037
  H      419.964    -194.697    -934.111
  H      421.279    -194.375    -935.216

 3  4  5  6  7  8  9  10  11  12  13  23  28  29  30  31  32 0
 6-311+G(2d,p)
 ****
 33  34 0
 6-311+G(2d,p)
 ****
 1  2  14  15  16  17  18  19  20  21  22  24  25  26  27 0
 3-21G
 ****
 35  36  37  38  39  40  41  42  43  44  45 0
 3-21G
 ****


