%nproc=1
%NoSave
%Mem=1900MB
#P OB98/GEN NMR

erre ene a

0 1
  C      576.940     -14.049    -727.118
  O      577.356     -12.797    -726.627
  H      576.932     -14.765    -726.288
  H      577.644     -14.399    -727.882
  H      575.932     -13.998    -727.542
  P      577.114     -11.494    -727.536
  C      579.612     -10.944    -727.147
  O      578.288     -10.449    -727.180
  C      580.539     -10.027    -726.335
  O      580.432      -8.679    -726.845
  C      580.090      -9.987    -724.869
  O      581.182      -9.725    -723.983
  C      579.139      -8.799    -724.835
  O      578.958      -8.257    -723.526
  C      579.809      -7.856    -725.831
  N      578.582      -2.981    -726.656
  C      579.555      -3.502    -725.831
  N      580.281      -2.618    -725.119
  N      579.785      -4.784    -725.715
  C      578.913      -5.555    -726.421
  C      577.905      -5.157    -727.247
  C      577.685      -3.737    -727.407
  O      576.821      -3.198    -728.114
  N      577.229      -6.229    -727.792
  C      577.838      -7.279    -727.285
  N      578.892      -6.924    -726.454
  O      575.826     -10.808    -726.869
  O      576.915     -11.747    -728.995
  H      578.684      -8.977    -722.953
  H      575.363     -10.251    -727.530
  H      578.461      -1.977    -726.729
  H      577.586      -8.308    -727.492
  H      580.582      -7.269    -725.333
  H      578.150      -9.153    -725.165
  H      580.032      -1.632    -725.050
  H      579.597     -10.911    -724.569
  H      580.795      -2.980    -724.311
  H      581.579     -10.329    -726.451
  H      579.964     -11.011    -728.189
  H      579.620     -11.960    -726.740
  P      581.924     -10.996    -723.312
  C      581.169     -10.379    -720.881
  O      582.226     -10.625    -721.793
  O      583.358     -11.000    -724.036
  O      581.195     -12.293    -723.520
  H      583.397     -11.721    -724.685
  H      581.575     -10.148    -719.918
  H      580.551     -11.250    -720.808
  H      580.583      -9.554    -721.228

 6  7  8  9  10  11  12  13  14  15  26  29  33  34 0
 6-311+G(2d,p)
 ****
 36  38  39  40  41 0
 6-311+G(2d,p)
 ****
 1  2  3  4  5  16  17  18  19  20  21  22  23  24  25 0
 3-21G
 ****
 27  28  30  31  32  35  37  42  43  44  45  46  47 0
 3-21G
 ****
 48  49 0
 3-21G
 ****


