%nproc=1
%NoSave
%Mem=1900MB
#P OB98/GEN NMR

erre ene a

0 1
  C     -273.526     369.026     115.353
  O     -273.418     369.429     114.002
  H     -274.445     368.457     115.502
  H     -272.673     368.389     115.602
  H     -273.519     369.899     116.009
  P     -274.599     370.346     113.422
  C     -277.070     369.979     112.719
  O     -275.876     369.388     113.215
  C     -278.069     368.892     112.332
  O     -277.642     368.306     111.074
  C     -278.217     367.760     113.363
  O     -279.576     367.649     113.793
  C     -277.850     366.497     112.593
  O     -278.687     365.386     112.906
  C     -277.997     366.919     111.134
  N     -277.626     362.516     108.586
  C     -278.701     363.202     109.031
  N     -278.741     364.421     109.610
  C     -277.504     364.950     109.683
  C     -276.318     364.383     109.254
  C     -276.406     363.094     108.697
  N     -275.305     362.373     108.292
  N     -275.250     365.225     109.508
  C     -275.778     366.263     110.125
  N     -277.137     366.132     110.271
  O     -274.120     370.661     111.924
  O     -274.866     371.598     114.190
  H     -278.594     364.747     112.173
  H     -274.209     371.617     111.746
  H     -279.660     362.702     108.916
  H     -275.227     367.106     110.524
  H     -279.028     366.817     110.777
  H     -276.814     366.223     112.829
  H     -277.562     367.892     114.235
  H     -279.040     369.368     112.150
  H     -276.839     370.586     111.833
  H     -275.448     361.413     108.014
  H     -274.387     362.752     108.472
  H     -277.489     370.637     113.489
  P     -279.818     367.343     115.352
  C     -279.611     365.237     116.874
  O     -279.695     365.752     115.551
  O     -281.383     367.615     115.535
  O     -278.993     368.178     116.274
  H     -281.575     367.872     116.458
  H     -279.535     364.170     116.837
  H     -280.488     365.513     117.421
  H     -278.747     365.640     117.359

 6  7  8  9  10  11  12  13  14  15  25  28  32  33  34  35 0
 6-311+G(2d,p)
 ****
 36  39  40 0
 6-311+G(2d,p)
 ****
 1  2  3  4  5  16  17  18  19  20  21  22  23  24 0
 3-21G
 ****
 26  27  29  30  31  37  38  41  42  43  44  45  46  47  48 0
 3-21G
 ****


