%nproc=1
%NoSave
%Mem=1900MB
#P OB98/GEN NMR

erre ene a

0 1
  C     -147.757      31.266      21.694
  O     -148.270      32.605      21.594
  P     -149.249      32.980      20.376
  C     -147.863      34.268      18.568
  O     -148.387      33.030      19.023
  C     -147.506      34.178      17.080
  O     -146.476      33.190      16.865
  C     -148.664      33.747      16.186
  O     -149.578      34.805      15.955
  C     -147.921      33.304      14.929
  O     -147.597      34.430      14.096
  C     -146.639      32.681      15.522
  N     -146.657      31.225      15.500
  C     -146.995      30.628      14.289
  O     -147.322      31.267      13.293
  N     -146.975      29.257      14.270
  C     -146.724      28.445      15.340
  O     -146.743      27.222      15.267
  C     -146.456      29.130      16.613
  C     -146.438      30.467      16.632
  O     -149.532      34.536      20.644
  O     -150.529      32.213      20.311
  H     -146.864      34.148      13.517
  H     -150.405      34.775      20.280
  H     -147.188      28.808      13.396
  H     -146.274      28.525      17.490
  H     -146.241      30.989      17.566
  H     -145.758      33.029      14.964
  H     -148.507      32.608      14.320
  H     -149.172      32.881      16.625
  H     -147.118      35.154      16.758
  H     -146.962      34.511      19.135
  H     -148.610      35.054      18.738
  P     -150.926      34.796      16.830
  C     -152.553      34.287      14.849
  O     -151.939      33.841      16.037
  O     -151.465      36.284      16.573
  O     -150.686      34.462      18.262
  H     -151.250      36.600      15.677
  H     -151.900      34.958      14.282
  H     -153.483      34.811      15.098
  H     -152.793      33.418      14.227
  H     -147.127      31.189      22.555
  H     -147.191      31.034      20.816
  H     -148.571      30.578      21.785

 3  4  5  6  7  8  9  10  11  12  13  23  28  29  30  31  32 0
 6-311+G(2d,p)
 ****
 33  34 0
 6-311+G(2d,p)
 ****
 1  2  14  15  16  17  18  19  20  21  22  24  25  26 0
 3-21G
 ****
 27  35  36  37  38  39  40  41  42  43  44  45 0
 3-21G
 ****


