%nproc=1
%NoSave
%Mem=1900MB
#P OB98/GEN NMR

erre ene a

0 1
  C       94.360    -136.756      -1.371
  O       94.014    -136.036      -0.204
  H       93.472    -136.847      -2.002
  H       94.713    -137.759      -1.110
  H       95.135    -136.219      -1.925
  P       95.179    -135.823       0.879
  C       95.844    -137.050       3.045
  O       95.009    -137.058       1.893
  C       95.132    -137.715       4.225
  O       93.984    -136.904       4.586
  C       94.628    -139.126       3.915
  O       94.799    -139.950       5.068
  C       93.146    -138.924       3.648
  O       92.383    -140.101       3.901
  C       92.822    -137.751       4.574
  N       87.730    -137.487       4.771
  C       88.621    -138.247       5.442
  N       89.969    -138.240       5.339
  C       90.375    -137.301       4.467
  C       89.584    -136.456       3.707
  C       88.193    -136.577       3.881
  N       87.276    -135.825       3.183
  N       90.368    -135.659       2.895
  C       91.612    -136.011       3.169
  N       91.664    -137.010       4.102
  O       95.232    -134.474       1.517
  O       96.479    -136.237       0.043
  H       92.607    -140.428       4.797
  H       96.325    -137.049      -0.476
  H       88.201    -138.957       6.150
  H       92.500    -135.583       2.713
  H       92.608    -138.070       5.601
  H       92.996    -138.643       2.599
  H       95.136    -139.574       3.062
  H       95.806    -137.711       5.088
  H       96.110    -136.021       3.311
  H       86.297    -135.968       3.379
  H       87.603    -135.129       2.527
  H       96.762    -137.595       2.801
  P       96.179    -140.746       5.241
  C       97.489    -142.444       3.802
  O       96.207    -141.956       4.186
  O       96.557    -141.103       6.638
  O       97.246    -139.725       4.610
  H       98.072    -139.769       5.130
  H       97.371    -143.243       3.101
  H       98.008    -142.802       4.667
  H       98.051    -141.653       3.350

 6  7  8  9  10  11  12  13  14  15  25  28  32  33  34  35 0
 6-311+G(2d,p)
 ****
 36  39  40 0
 6-311+G(2d,p)
 ****
 1  2  3  4  5  16  17  18  19  20  21  22  23  24 0
 3-21G
 ****
 26  27  29  30  31  37  38  41  42  43  44  45  46  47 0
 3-21G
 ****
 48 0
 3-21G
 ****


