%nproc=1
%NoSave
%Mem=1900MB
#P OB98/GEN NMR

erre ene a

0 1
  C      780.195     -24.403     258.549
  O      779.593     -23.787     259.666
  P      778.141     -24.255     260.165
  C      776.653     -22.629     258.840
  O      777.090     -23.975     258.982
  C      775.137     -22.571     258.663
  O      774.719     -23.447     257.597
  C      774.346     -23.031     259.886
  O      774.380     -22.081     260.931
  C      772.971     -23.265     259.267
  O      772.259     -22.031     259.128
  C      773.346     -23.829     257.877
  N      773.170     -25.271     257.802
  C      771.846     -25.724     257.788
  O      770.916     -24.938     257.919
  N      771.623     -27.075     257.624
  C      772.626     -27.903     257.613
  N      772.344     -29.217     257.394
  C      774.020     -27.470     257.790
  C      774.228     -26.155     257.856
  O      777.732     -23.739     261.501
  O      778.237     -25.855     260.175
  H      777.916     -26.187     261.032
  H      771.443     -22.233     258.635
  H      774.820     -28.205     257.837
  H      775.229     -25.747     257.957
  H      772.738     -23.354     257.105
  H      772.357     -23.935     259.883
  H      774.752     -23.985     260.245
  H      774.863     -21.542     258.399
  H      771.372     -29.466     257.254
  H      777.147     -22.184     257.972
  H      773.038     -29.874     257.047
  H      776.952     -22.056     259.730
  P      774.037     -22.610     262.405
  C      771.461     -22.416     262.586
  O      772.579     -23.259     262.348
  O      773.823     -21.263     263.240
  O      775.100     -23.468     263.024
  H      774.164     -21.376     264.144
  H      770.570     -22.902     262.175
  H      771.582     -21.445     262.104
  H      771.337     -22.288     263.661
  H      781.153     -23.960     258.371
  H      779.573     -24.267     257.689
  H      780.316     -25.449     258.740

 3  4  5  6  7  8  9  10  11  12  13  24  27  28  29  30  32 0
 6-311+G(2d,p)
 ****
 34  35 0
 6-311+G(2d,p)
 ****
 1  2  14  15  16  17  18  19  20  21  22  23  25  26 0
 3-21G
 ****
 31  33  36  37  38  39  40  41  42  43  44  45  46 0
 3-21G
 ****


