%nproc=1
%NoSave
%Mem=1900MB
#P OB98/GEN NMR

erre ene a

0 1
  C      320.771     149.726     -23.703
  O      321.075     148.446     -24.216
  H      321.702     150.292     -23.603
  H      320.304     149.644     -22.719
  H      320.108     150.264     -24.387
  P      319.887     147.386     -24.397
  C      318.447     148.105     -26.415
  O      319.553     147.329     -25.966
  C      317.627     147.312     -27.439
  O      316.423     148.070     -27.721
  C      318.382     147.098     -28.758
  O      318.432     145.731     -29.161
  C      317.716     148.088     -29.708
  O      317.787     147.735     -31.074
  C      316.293     148.200     -29.149
  N      315.619     149.450     -29.493
  C      314.893     149.479     -30.681
  O      314.754     148.529     -31.449
  N      314.291     150.676     -30.976
  C      314.350     151.812     -30.228
  O      313.784     152.852     -30.542
  C      315.150     151.726     -28.997
  C      315.740     150.568     -28.691
  O      318.701     147.588     -23.513
  O      320.586     145.971     -24.128
  H      317.717     146.761     -31.134
  H      320.360     145.660     -23.231
  H      313.754     150.704     -31.830
  H      315.225     152.614     -28.383
  H      316.337     150.469     -27.789
  H      315.674     147.379     -29.511
  H      318.220     149.057     -29.601
  H      319.440     147.368     -28.652
  H      317.321     146.361     -26.989
  H      318.838     149.020     -26.869
  H      317.813     148.372     -25.561
  P      319.769     144.949     -29.555
  C      320.990     144.378     -27.307
  O      320.136     143.954     -28.358
  O      320.873     145.791     -30.097
  O      319.285     143.961     -30.735
  H      320.044     143.861     -31.345
  H      321.116     143.580     -26.606
  H      320.555     145.221     -26.812
  H      321.942     144.653     -27.710

 6  7  8  9  10  11  12  13  14  15  16  26  31  32  33  34  35 0
 6-311+G(2d,p)
 ****
 36  37 0
 6-311+G(2d,p)
 ****
 1  2  3  4  5  17  18  19  20  21  22  23  24  25 0
 3-21G
 ****
 27  28  29  30  38  39  40  41  42  43  44  45 0
 3-21G
 ****


