%nproc=1
%NoSave
%Mem=1900MB
#P OB98/GEN NMR

erre ene a

0 1
  C     -433.555    -149.329      44.245
  O     -432.653    -148.431      44.895
  P     -431.113    -148.471      44.443
  C     -430.804    -145.989      43.706
  O     -430.883    -147.356      43.315
  C     -431.697    -145.126      42.809
  O     -433.085    -145.475      42.953
  C     -431.619    -143.646      43.143
  O     -430.433    -143.076      42.613
  C     -432.900    -143.108      42.500
  O     -432.680    -142.716      41.134
  C     -433.853    -144.328      42.569
  N     -434.970    -144.107      43.473
  C     -436.241    -144.040      42.881
  O     -436.351    -144.142      41.655
  N     -437.325    -143.841      43.688
  C     -437.170    -143.693      44.962
  N     -438.285    -143.482      45.710
  C     -435.852    -143.726      45.629
  C     -434.797    -143.936      44.827
  O     -431.006    -149.848      43.621
  O     -430.143    -148.432      45.579
  H     -433.576    -142.550      40.759
  H     -430.124    -150.237      43.732
  H     -435.759    -143.583      46.690
  H     -433.789    -143.969      45.228
  H     -434.260    -144.543      41.572
  H     -433.273    -142.229      43.030
  H     -431.661    -143.497      44.226
  H     -431.393    -145.291      41.762
  H     -439.180    -143.460      45.225
  H     -429.772    -145.643      43.657
  H     -438.272    -143.351      46.711
  H     -431.111    -145.911      44.755
  P     -429.579    -142.116      43.561
  C     -427.388    -143.435      43.479
  O     -428.500    -143.059      44.264
  O     -430.610    -141.834      44.769
  O     -429.071    -140.843      42.965
  H     -430.244    -141.172      45.372
  H     -426.640    -143.899      44.127
  H     -426.940    -142.562      43.002
  H     -427.695    -144.160      42.718
  H     -434.540    -149.195      44.642
  H     -433.237    -150.337      44.412
  H     -433.563    -149.128      43.194

 3  4  5  6  7  8  9  10  11  12  13  21  23  27  28  29  30  32 0
 6-311+G(2d,p)
 ****
 34  35 0
 6-311+G(2d,p)
 ****
 1  2  14  15  16  17  18  19  20  22  24  25  26 0
 3-21G
 ****
 31  33  36  37  38  39  40  41  42  43  44  45  46 0
 3-21G
 ****


