%nproc=1
%NoSave
%Mem=1900MB
#P OB98/GEN NMR

erre ene a

0 1
  C      130.175     -57.280     -19.732
  O      129.144     -56.323     -19.481
  P      127.781     -56.396     -20.316
  C      125.691     -57.919     -20.258
  O      126.708     -57.268     -19.505
  C      124.506     -58.263     -19.351
  O      124.920     -59.067     -18.220
  C      123.856     -57.033     -18.732
  O      123.144     -56.182     -19.605
  C      123.092     -57.626     -17.561
  O      121.829     -58.150     -17.968
  C      124.038     -58.767     -17.118
  N      124.792     -58.438     -15.908
  C      124.044     -58.284     -14.745
  O      122.818     -58.368     -14.714
  N      124.755     -57.989     -13.613
  C      126.105     -57.804     -13.541
  O      126.689     -57.519     -12.503
  C      126.839     -57.957     -14.807
  C      126.161     -58.262     -15.915
  O      127.922     -56.742     -21.759
  O      127.195     -54.905     -20.159
  H      121.298     -57.405     -18.304
  H      126.823     -54.640     -21.023
  H      124.231     -57.882     -12.759
  H      127.911     -57.812     -14.788
  H      126.683     -58.379     -16.858
  H      123.466     -59.681     -16.916
  H      122.892     -56.876     -16.788
  H      124.655     -56.411     -18.303
  H      123.787     -58.850     -19.925
  H      126.093     -58.824     -20.717
  H      125.385     -57.264     -21.081
  P      123.584     -54.672     -19.914
  C      125.119     -53.479     -21.630
  O      124.439     -54.661     -21.270
  O      124.102     -53.861     -18.774
  O      122.192     -54.031     -20.403
  H      122.172     -53.095     -20.131
  H      125.631     -53.647     -22.582
  H      125.863     -53.220     -20.874
  H      124.411     -52.655     -21.756
  H      131.008     -57.084     -19.090
  H      130.487     -57.208     -20.753
  H      129.802     -58.265     -19.542

 3  4  5  6  7  8  9  10  11  12  13  23  28  29  30  31  32 0
 6-311+G(2d,p)
 ****
 33  34 0
 6-311+G(2d,p)
 ****
 1  2  14  15  16  17  18  19  20  21  22  24  25  26  27 0
 3-21G
 ****
 35  36  37  38  39  40  41  42  43  44  45 0
 3-21G
 ****


