%nproc=1
%NoSave
%Mem=1900MB
#P OB98/GEN NMR

erre ene a

0 1
  C      -39.004     -48.215     258.006
  O      -38.169     -48.809     257.012
  P      -38.658     -49.846     255.900
  C      -39.098     -51.747     257.665
  O      -39.589     -50.940     256.601
  C      -39.939     -53.026     257.822
  O      -39.325     -53.866     258.845
  C      -41.376     -52.734     258.278
  O      -42.360     -53.518     257.607
  C      -41.285     -52.877     259.789
  O      -42.545     -53.093     260.410
  C      -40.257     -54.000     259.942
  N      -40.048     -55.722     264.745
  C      -41.038     -55.899     263.795
  N      -42.117     -56.611     264.169
  N      -40.976     -55.406     262.587
  C      -39.877     -54.647     262.366
  C      -38.839     -54.387     263.229
  C      -38.888     -54.980     264.551
  O      -38.040     -54.874     265.421
  N      -37.894     -53.580     262.648
  C      -38.366     -53.340     261.441
  N      -39.570     -53.972     261.221
  O      -37.602     -50.352     254.972
  O      -39.707     -48.995     255.021
  H      -42.386     -53.249     261.356
  H      -39.647     -49.336     254.107
  H      -40.135     -56.147     265.650
  H      -37.878     -52.730     260.687
  H      -40.721     -54.988     259.872
  H      -40.885     -51.936     260.189
  H      -42.289     -56.914     265.116
  H      -41.662     -51.705     258.029
  H      -42.929     -56.547     263.549
  H      -39.921     -53.579     256.873
  H      -39.185     -51.133     258.568
  H      -38.042     -51.984     257.518
  P      -43.703     -53.035     256.893
  C      -45.314     -53.450     258.845
  O      -44.705     -52.477     258.018
  O      -44.421     -54.377     256.406
  O      -43.496     -52.114     255.734
  H      -44.507     -54.372     255.432
  H      -46.151     -52.982     259.369
  H      -44.589     -53.808     259.587
  H      -45.684     -54.292     258.250
  H      -38.419     -47.561     258.619
  H      -39.436     -48.982     258.614
  H      -39.783     -47.656     257.530

 3  4  5  6  7  8  9  10  11  12  23  26  30  31 0
 6-311+G(2d,p)
 ****
 33  35  36  37  38 0
 6-311+G(2d,p)
 ****
 1  2  13  14  15  16  17  18  19  20  21  22  24  25 0
 3-21G
 ****
 27  28  29  32  34  39  40  41  42  43  44  45  46  47  48  49 0
 3-21G
 ****


