%nproc=1
%NoSave
%Mem=1900MB
#P OB98/GEN NMR

erre ene a

0 1
  C     -387.490     137.025    -113.560
  O     -388.723     137.505    -113.066
  H     -386.683     137.421    -112.933
  H     -387.338     137.372    -114.584
  H     -387.452     135.933    -113.527
  P     -390.081     136.865    -113.628
  C     -391.064     138.885    -114.902
  O     -391.140     138.068    -113.741
  C     -391.342     140.351    -114.551
  O     -392.643     140.432    -113.895
  C     -390.302     140.974    -113.591
  O     -390.202     142.368    -113.926
  C     -390.991     140.780    -112.258
  O     -390.394     141.551    -111.241
  C     -392.431     141.127    -112.644
  N     -393.418     140.736    -111.642
  C     -393.850     141.718    -110.759
  O     -393.470     142.884    -110.790
  N     -394.753     141.306    -109.809
  C     -395.238     140.037    -109.666
  O     -396.058     139.726    -108.808
  C     -394.720     139.039    -110.613
  C     -393.849     139.431    -111.549
  O     -390.578     135.657    -112.911
  O     -389.740     136.546    -115.166
  H     -389.498     135.603    -115.250
  H     -390.780     141.316    -110.367
  H     -395.077     141.999    -109.156
  H     -395.074     138.021    -110.514
  H     -393.442     138.719    -112.265
  H     -392.531     142.198    -112.851
  H     -390.918     139.733    -111.938
  H     -389.319     140.504    -113.665
  H     -391.416     140.929    -115.480
  H     -391.808     138.530    -115.623
  H     -390.063     138.791    -115.343
  P     -389.087     142.956    -114.921
  C     -388.456     145.171    -113.762
  O     -389.115     144.561    -114.863
  O     -389.184     142.415    -116.312
  O     -387.677     142.568    -114.270
  H     -387.042     142.371    -114.974
  H     -388.545     146.235    -113.838
  H     -387.421     144.898    -113.770
  H     -388.905     144.839    -112.849

 6  7  8  9  10  11  12  13  14  15  16  27  31  32  33  34  35 0
 6-311+G(2d,p)
 ****
 36  37 0
 6-311+G(2d,p)
 ****
 1  2  3  4  5  17  18  19  20  21  22  23  24  25 0
 3-21G
 ****
 26  28  29  30  38  39  40  41  42  43  44  45 0
 3-21G
 ****


