%nproc=1
%NoSave
%Mem=1900MB
#P OB98/GEN NMR

erre ene a

0 1
  C     -158.544    -236.502     -50.773
  O     -159.448    -235.938     -51.698
  P     -159.934    -234.418     -51.566
  C     -158.903    -232.127     -52.141
  O     -158.645    -233.496     -51.844
  C     -157.998    -231.222     -51.294
  O     -158.422    -231.310     -49.898
  C     -156.510    -231.629     -51.365
  O     -155.622    -230.565     -51.711
  C     -156.275    -232.261     -50.002
  O     -154.912    -232.301     -49.618
  C     -157.224    -231.453     -49.111
  N     -157.473    -232.097     -47.826
  C     -156.710    -231.666     -46.743
  O     -155.859    -230.781     -46.799
  N     -156.908    -232.336     -45.569
  C     -157.687    -233.442     -45.398
  O     -157.743    -234.053     -44.339
  C     -158.438    -233.872     -46.589
  C     -158.319    -233.182     -47.723
  O     -160.666    -234.087     -50.309
  O     -160.795    -234.197     -52.899
  H     -154.619    -231.386     -49.453
  H     -160.305    -234.331     -53.730
  H     -156.363    -232.036     -44.775
  H     -159.057    -234.754     -46.486
  H     -158.861    -233.475     -48.616
  H     -156.836    -230.447     -48.926
  H     -156.620    -233.302     -50.051
  H     -156.346    -232.377     -52.147
  H     -158.140    -230.193     -51.636
  H     -159.948    -231.907     -51.905
  H     -158.759    -231.943     -53.210
  P     -154.224    -230.745     -52.463
  C     -153.438    -231.788     -54.714
  O     -154.463    -231.669     -53.746
  O     -153.079    -231.152     -51.595
  O     -153.954    -229.303     -53.106
  H     -152.994    -229.151     -53.178
  H     -153.897    -231.993     -55.687
  H     -152.789    -232.628     -54.449
  H     -152.847    -230.873     -54.787
  H     -158.350    -237.520     -51.039
  H     -158.968    -236.464     -49.791
  H     -157.628    -235.949     -50.787

 3  4  5  6  7  8  9  10  11  12  13  23  28  29  30  31  32 0
 6-311+G(2d,p)
 ****
 33  34 0
 6-311+G(2d,p)
 ****
 1  2  14  15  16  17  18  19  20  21  22  24  25  26  27 0
 3-21G
 ****
 35  36  37  38  39  40  41  42  43  44  45 0
 3-21G
 ****


