%nproc=1
%NoSave
%Mem=1900MB
#P OB98/GEN NMR

erre ene a

0 1
  C      -21.836     -63.333     -82.461
  O      -20.891     -63.111     -81.412
  P      -19.414     -63.714     -81.541
  C      -18.158     -61.529     -80.961
  O      -18.418     -62.881     -80.602
  C      -18.733     -60.584     -79.902
  O      -20.150     -60.811     -79.703
  C      -18.113     -60.789     -78.526
  O      -16.766     -60.397     -78.371
  C      -19.137     -60.140     -77.610
  O      -18.956     -58.726     -77.538
  C      -20.461     -60.483     -78.333
  N      -21.196     -61.566     -77.680
  C      -22.273     -61.184     -76.887
  O      -22.585     -60.012     -76.692
  N      -22.965     -62.203     -76.290
  C      -22.669     -63.532     -76.378
  O      -23.310     -64.402     -75.803
  C      -21.505     -63.873     -77.210
  C      -20.832     -62.891     -77.814
  O      -18.931     -63.950     -82.931
  O      -19.536     -65.111     -80.752
  H      -18.988     -58.381     -78.451
  H      -19.035     -65.781     -81.256
  H      -23.754     -61.945     -75.718
  H      -21.238     -64.917     -77.299
  H      -19.971     -63.121     -78.432
  H      -21.119     -59.605     -78.362
  H      -19.065     -60.524     -76.588
  H      -18.132     -61.866     -78.306
  H      -18.610     -59.557     -80.248
  H      -18.596     -61.314     -81.938
  H      -17.076     -61.392     -81.070
  P      -15.604     -61.403     -77.915
  C      -14.673     -61.881     -80.287
  O      -14.430     -61.347     -79.004
  O      -16.017     -62.750     -77.423
  O      -14.949     -60.593     -76.689
  H      -14.629     -61.238     -76.031
  H      -13.766     -61.773     -80.887
  H      -15.484     -61.339     -80.779
  H      -14.922     -62.943     -80.217
  H      -22.764     -62.863     -82.210
  H      -21.991     -64.384     -82.585
  H      -21.461     -62.918     -83.373

 3  4  5  6  7  8  9  10  11  12  13  23  28  29  30  31  32 0
 6-311+G(2d,p)
 ****
 33  34 0
 6-311+G(2d,p)
 ****
 1  2  14  15  16  17  18  19  20  21  22  24  25  26  27 0
 3-21G
 ****
 35  36  37  38  39  40  41  42  43  44  45 0
 3-21G
 ****


