%nproc=1
%NoSave
%Mem=1900MB
#P OB98/GEN NMR

erre ene a

0 1
  C      421.635    -163.504     388.125
  O      422.269    -164.734     388.411
  P      421.807    -166.065     387.649
  C      422.848    -167.242     389.686
  O      422.620    -167.296     388.281
  C      423.521    -168.529     390.166
  O      422.556    -169.598     390.248
  C      424.617    -169.039     389.238
  O      425.800    -168.274     389.393
  C      424.733    -170.490     389.682
  O      425.548    -170.594     390.862
  C      423.271    -170.834     390.009
  N      421.602    -175.446     388.607
  C      422.350    -175.039     389.653
  N      422.789    -173.793     389.939
  C      422.395    -172.929     388.988
  C      421.658    -173.203     387.847
  C      421.233    -174.533     387.676
  N      420.418    -174.949     386.645
  N      421.482    -172.050     387.099
  C      422.108    -171.109     387.773
  N      422.615    -171.577     388.954
  O      421.828    -165.991     386.161
  O      420.317    -166.308     388.182
  H      426.447    -170.310     390.615
  H      419.698    -166.285     387.429
  H      422.628    -175.817     390.365
  H      422.204    -170.078     387.460
  H      423.187    -171.428     390.925
  H      425.179    -171.128     388.919
  H      424.271    -169.006     388.196
  H      423.918    -168.352     391.174
  H      421.881    -167.122     390.185
  H      420.054    -175.887     386.702
  H      419.894    -174.243     386.135
  H      423.477    -166.377     389.921
  P      426.271    -167.291     388.220
  C      428.607    -166.981     389.235
  O      427.410    -166.343     388.833
  O      425.178    -166.583     387.492
  O      427.102    -168.247     387.237
  H      427.002    -167.929     386.318
  H      428.453    -167.477     390.197
  H      429.387    -166.225     389.343
  H      428.925    -167.716     388.492
  H      422.070    -162.731     388.723
  H      420.591    -163.581     388.346
  H      421.764    -163.269     387.089

 3  4  5  6  7  8  9  10  11  12  22  25  29  30  31  32 0
 6-311+G(2d,p)
 ****
 33  36  37 0
 6-311+G(2d,p)
 ****
 1  2  13  14  15  16  17  18  19  20  21  23  24  26 0
 3-21G
 ****
 27  28  34  35  38  39  40  41  42  43  44  45  46  47  48 0
 3-21G
 ****


