%nproc=1
%NoSave
%Mem=1900MB
#P OB98/GEN NMR

erre ene a

0 1
  C     -167.114     324.571     414.523
  O     -167.076     325.885     414.015
  H     -167.484     323.904     413.743
  H     -167.800     324.530     415.377
  H     -166.123     324.235     414.838
  P     -166.169     326.978     414.756
  C     -167.439     327.010     417.006
  O     -167.083     327.739     415.833
  C     -167.899     327.936     418.129
  O     -166.814     328.806     418.521
  C     -169.056     328.843     417.702
  O     -170.344     328.272     417.862
  C     -168.872     330.047     418.629
  O     -169.565     329.854     419.875
  C     -167.361     330.092     418.858
  N     -164.132     334.056     418.812
  C     -164.652     333.377     419.891
  N     -164.301     333.842     421.113
  N     -165.461     332.355     419.786
  C     -165.804     332.071     418.501
  C     -165.368     332.686     417.352
  C     -164.417     333.769     417.484
  O     -163.914     334.393     416.553
  N     -165.970     332.156     416.238
  C     -166.829     331.282     416.725
  N     -166.708     331.139     418.087
  O     -165.949     328.104     413.633
  O     -164.857     326.478     415.269
  H     -169.441     330.654     420.418
  H     -165.080     328.525     413.762
  H     -163.494     334.820     418.962
  H     -167.523     330.690     416.133
  H     -167.116     330.278     419.912
  H     -169.286     330.956     418.169
  H     -163.753     334.674     421.256
  H     -168.928     329.187     416.669
  H     -164.806     333.498     421.931
  H     -168.161     327.336     419.013
  H     -166.539     326.468     417.313
  H     -168.207     326.267     416.778
  P     -171.298     328.020     416.599
  C     -171.976     330.544     416.277
  O     -172.361     329.203     416.540
  O     -172.170     326.762     417.063
  O     -170.594     327.781     415.303
  H     -171.813     325.938     416.676
  H     -172.843     331.172     416.283
  H     -171.503     330.598     415.319
  H     -171.292     330.873     417.031

 6  7  8  9  10  11  12  13  14  15  26  29  33  34 0
 6-311+G(2d,p)
 ****
 36  38  39  40  41 0
 6-311+G(2d,p)
 ****
 1  2  3  4  5  16  17  18  19  20  21  22  23  24  25 0
 3-21G
 ****
 27  28  30  31  32  35  37  42  43  44  45  46  47 0
 3-21G
 ****
 48  49 0
 3-21G
 ****


