%nproc=1
%NoSave
%Mem=1900MB
#P OB98/GEN NMR

erre ene a

0 1
  C      179.841     482.741     335.911
  O      179.013     483.438     336.851
  P      179.467     483.485     338.387
  C      177.831     481.795     339.448
  O      179.172     482.055     339.058
  C      177.779     480.690     340.515
  O      178.438     481.127     341.742
  C      176.342     480.303     340.885
  O      176.271     478.902     341.221
  C      176.099     481.093     342.158
  O      175.029     480.539     342.924
  C      177.477     481.013     342.815
  N      175.573     483.332     346.958
  C      175.140     482.271     346.248
  N      175.715     481.689     345.173
  C      176.853     482.324     344.842
  C      177.421     483.419     345.481
  C      176.720     483.938     346.582
  N      177.145     485.050     347.285
  N      178.597     483.790     344.854
  C      178.709     482.977     343.841
  N      177.700     482.048     343.804
  O      178.975     484.655     339.171
  O      181.069     483.497     338.287
  H      175.359     479.716     343.333
  H      181.422     484.132     338.941
  H      174.215     481.825     346.593
  H      179.484     483.011     343.084
  H      177.641     480.045     343.299
  H      175.836     482.129     341.901
  H      175.597     480.517     340.115
  H      178.336     479.821     340.147
  H      177.246     481.498     338.579
  H      176.521     485.420     347.991
  H      177.921     485.589     346.929
  H      177.383     482.727     339.815
  P      175.690     477.940     340.068
  C      173.193     477.475     340.690
  O      174.130     478.257     339.973
  O      176.061     476.507     340.254
  O      176.316     478.594     338.746
  H      176.171     479.560     338.669
  H      172.201     477.934     340.593
  H      173.453     477.430     341.750
  H      173.158     476.467     340.275
  H      179.403     482.802     334.937
  H      179.924     481.715     336.201
  H      180.814     483.187     335.893

 3  4  5  6  7  8  9  10  11  12  22  25  29  30  31  32 0
 6-311+G(2d,p)
 ****
 33  36  37 0
 6-311+G(2d,p)
 ****
 1  2  13  14  15  16  17  18  19  20  21  23  24  26 0
 3-21G
 ****
 27  28  34  35  38  39  40  41  42  43  44  45  46  47  48 0
 3-21G
 ****


