%nproc=1
%NoSave
%Mem=1900MB
#P OB98/GEN NMR

erre ene a

0 1
  C       20.190     396.946    -805.247
  O       20.008     397.376    -806.586
  H       19.238     396.609    -804.825
  H       20.894     396.101    -805.243
  H       20.608     397.755    -804.640
  P       19.033     398.628    -806.804
  C       17.385     397.210    -808.228
  O       18.239     398.348    -808.176
  C       16.588     397.217    -809.532
  O       15.535     398.197    -809.460
  C       17.397     397.573    -810.774
  O       18.150     396.469    -811.253
  C       16.286     397.957    -811.737
  O       15.689     396.761    -812.279
  C       15.294     398.676    -810.819
  N       13.982     402.995    -813.245
  C       13.616     401.699    -813.424
  N       13.990     400.612    -812.727
  C       14.823     400.957    -811.729
  C       15.275     402.225    -811.403
  C       14.827     403.277    -812.221
  N       15.260     404.583    -812.058
  N       16.129     402.175    -810.321
  C       16.211     400.896    -810.018
  N       15.436     400.121    -810.832
  O       20.049     399.812    -807.185
  O       18.185     398.986    -805.631
  H       15.193     397.033    -813.075
  H       20.246     400.337    -806.390
  H       12.925     401.526    -814.253
  H       16.820     400.487    -809.219
  H       14.248     398.440    -811.062
  H       16.640     398.556    -812.586
  H       18.040     398.454    -810.607
  H       16.115     396.231    -809.644
  H       16.691     397.236    -807.378
  H       15.257     405.124    -812.919
  H       16.076     404.688    -811.465
  H       17.999     396.302    -808.165
  P       19.595     396.755    -811.884
  C       19.190     397.903    -814.168
  O       19.428     396.683    -813.476
  O       20.412     395.443    -811.514
  O       20.287     397.990    -811.357
  H       21.228     395.673    -811.018
  H       19.100     397.707    -815.216
  H       20.007     398.574    -814.000
  H       18.285     398.346    -813.809

 6  7  8  9  10  11  12  13  14  15  25  28  32  33  34  35 0
 6-311+G(2d,p)
 ****
 36  39  40 0
 6-311+G(2d,p)
 ****
 1  2  3  4  5  16  17  18  19  20  21  22  23  24 0
 3-21G
 ****
 26  27  29  30  31  37  38  41  42  43  44  45  46  47  48 0
 3-21G
 ****


