%nproc=1
%NoSave
%Mem=1900MB
#P OB98/GEN NMR

erre ene a

0 1
  C      524.057       9.989      15.300
  O      523.563       9.642      14.021
  H      525.061       9.569      15.412
  H      523.418       9.582      16.086
  H      524.121      11.075      15.394
  P      522.046       9.998      13.657
  C      522.141      10.729      11.187
  O      521.864       9.670      12.096
  C      523.589      10.661      10.701
  O      523.833       9.332      10.163
  C      523.920      11.683       9.611
  O      525.253      12.150       9.818
  C      523.838      10.858       8.343
  O      524.596      11.431       7.295
  C      524.320       9.483       8.817
  N      523.836       8.422       7.936
  C      524.672       8.059       6.874
  O      525.762       8.619       6.723
  N      524.234       7.129       5.967
  C      523.041       6.637       6.080
  N      522.649       5.747       5.127
  C      522.112       7.008       7.167
  C      522.567       7.891       8.050
  O      521.569      11.349      14.069
  O      521.203       8.837      14.369
  H      525.545      11.226       7.429
  H      520.952       9.113      15.270
  H      521.121       6.574       7.210
  H      521.954       8.235       8.879
  H      525.416       9.444       8.848
  H      522.794      10.798       8.008
  H      523.224      12.529       9.592
  H      524.256      10.778      11.565
  H      523.312       5.543       4.385
  H      521.976      11.673      11.715
  H      521.734       5.333       5.080
  H      521.454      10.674      10.337
  P      525.549      13.715      10.025
  C      528.083      13.596      10.354
  O      527.033      14.043       9.502
  O      525.245      14.233      11.392
  O      524.611      14.428       8.935
  H      524.347      15.310       9.263
  H      529.027      13.859       9.924
  H      528.025      12.533      10.465
  H      527.986      14.060      11.313

 6  7  8  9  10  11  12  13  14  15  16  26  30  31  32  33  35 0
 6-311+G(2d,p)
 ****
 37  38 0
 6-311+G(2d,p)
 ****
 1  2  3  4  5  17  18  19  20  21  22  23  24  25 0
 3-21G
 ****
 27  28  29  34  36  39  40  41  42  43  44  45  46 0
 3-21G
 ****


