%nproc=1
%NoSave
%Mem=1900MB
#P OB98/GEN NMR

erre ene a

0 1
  C      -85.421    -207.010     -81.186
  O      -84.090    -206.614     -80.880
  P      -83.805    -205.358     -79.933
  C      -81.752    -204.924     -81.507
  O      -82.756    -204.403     -80.665
  C      -81.202    -203.787     -82.383
  O      -82.243    -203.262     -83.229
  C      -80.657    -202.638     -81.537
  O      -79.260    -202.778     -81.343
  C      -81.035    -201.415     -82.353
  O      -80.079    -201.203     -83.406
  C      -82.399    -201.844     -82.941
  N      -83.601    -201.682     -82.101
  C      -84.020    -200.404     -81.734
  O      -83.460    -199.374     -82.095
  N      -85.113    -200.353     -80.900
  C      -85.827    -201.425     -80.454
  O      -86.638    -201.384     -79.531
  C      -85.506    -202.705     -81.087
  C      -84.414    -202.781     -81.851
  O      -82.961    -205.991     -78.734
  O      -85.019    -204.635     -79.441
  H      -79.198    -201.176     -82.988
  H      -83.531    -206.168     -77.965
  H      -85.335    -199.437     -80.518
  H      -86.140    -203.562     -80.870
  H      -84.136    -203.729     -82.303
  H      -82.599    -201.330     -83.886
  H      -81.023    -200.515     -81.740
  H      -81.185    -202.598     -80.573
  H      -80.412    -204.190     -83.034
  H      -82.161    -205.720     -82.133
  H      -80.944    -205.361     -80.908
  P      -78.575    -202.156     -80.037
  C      -76.432    -202.515     -81.400
  O      -77.127    -201.655     -80.518
  O      -78.583    -203.029     -78.823
  O      -79.400    -200.805     -79.799
  H      -80.094    -200.950     -79.122
  H      -75.559    -201.987     -81.789
  H      -77.071    -202.809     -82.234
  H      -76.095    -203.406     -80.856
  H      -85.400    -207.865     -81.829
  H      -85.928    -206.206     -81.678
  H      -85.937    -207.257     -80.281

 3  4  5  6  7  8  9  10  11  12  13  23  28  29  30  31  32 0
 6-311+G(2d,p)
 ****
 33  34 0
 6-311+G(2d,p)
 ****
 1  2  14  15  16  17  18  19  20  21  22  24  25  26  27 0
 3-21G
 ****
 35  36  37  38  39  40  41  42  43  44  45 0
 3-21G
 ****


