%nproc=1
%NoSave
%Mem=1900MB
#P OB98/GEN NMR

erre ene a

0 1
  C     -109.134     431.597    -123.773
  O     -107.888     431.088    -124.204
  H     -109.059     431.853    -122.713
  H     -109.921     430.850    -123.900
  H     -109.387     432.502    -124.333
  P     -107.768     430.531    -125.700
  C     -107.763     428.115    -124.781
  O     -108.351     429.039    -125.684
  C     -108.185     426.678    -125.117
  O     -109.576     426.494    -124.725
  C     -108.084     426.336    -126.614
  O     -107.807     424.933    -126.712
  C     -109.492     426.640    -127.085
  O     -109.738     426.094    -128.358
  C     -110.303     426.090    -125.908
  N     -111.674     426.576    -125.898
  C     -112.567     425.920    -126.749
  O     -112.180     424.997    -127.465
  N     -113.870     426.348    -126.792
  C     -114.231     427.380    -126.097
  N     -115.531     427.761    -126.197
  C     -113.305     428.139    -125.232
  C     -112.054     427.682    -125.175
  O     -106.427     430.672    -126.339
  O     -108.885     431.347    -126.507
  H     -109.607     425.120    -128.354
  H     -108.461     432.031    -127.057
  H     -113.651     429.005    -124.687
  H     -111.300     428.173    -124.566
  H     -110.320     424.994    -125.923
  H     -109.642     427.720    -127.176
  H     -107.312     426.912    -127.132
  H     -107.589     425.985    -124.512
  H     -116.129     427.220    -126.812
  H     -108.102     428.377    -123.774
  H     -115.923     428.561    -125.721
  H     -106.671     428.194    -124.818
  P     -106.411     424.355    -127.253
  C     -107.386     424.331    -129.640
  O     -106.274     424.675    -128.817
  O     -106.167     422.924    -126.899
  O     -105.293     425.289    -126.584
  H     -104.481     424.764    -126.446
  H     -107.173     424.593    -130.655
  H     -108.253     424.864    -129.309
  H     -107.567     423.279    -129.573

 6  7  8  9  10  11  12  13  14  15  16  26  30  31  32  33  35 0
 6-311+G(2d,p)
 ****
 37  38 0
 6-311+G(2d,p)
 ****
 1  2  3  4  5  17  18  19  20  21  22  23  24  25 0
 3-21G
 ****
 27  28  29  34  36  39  40  41  42  43  44  45  46 0
 3-21G
 ****


