%nproc=1
%NoSave
%Mem=1900MB
#P OB98/GEN NMR

erre ene a

0 1
  C      169.742      23.419     -64.290
  O      169.621      24.671     -64.974
  P      168.347      24.877     -65.926
  C      169.515      24.592     -68.226
  O      168.586      24.066     -67.290
  C      169.132      24.218     -69.665
  O      169.972      24.922     -70.623
  C      169.273      22.723     -69.968
  O      168.302      22.370     -70.960
  C      170.654      22.642     -70.592
  O      170.828      21.436     -71.336
  C      170.660      23.930     -71.414
  N      173.656      25.526     -75.144
  C      172.337      25.118     -75.175
  N      171.715      25.177     -76.371
  N      171.685      24.691     -74.124
  C      172.427      24.721     -72.990
  C      173.741      25.096     -72.833
  C      174.456      25.542     -74.007
  O      175.629      25.902     -74.043
  N      174.147      24.965     -71.528
  C      173.080      24.505     -70.902
  N      172.003      24.375     -71.737
  O      168.481      26.409     -66.376
  O      167.040      24.625     -65.249
  H      170.785      20.690     -70.697
  H      167.796      26.943     -65.934
  H      174.113      25.836     -75.986
  H      173.034      24.249     -69.853
  H      170.124      23.819     -72.365
  H      171.421      22.674     -69.807
  H      172.143      25.544     -77.208
  H      169.162      22.066     -69.101
  H      170.735      24.923     -76.413
  H      168.099      24.535     -69.846
  H      170.520      24.218     -68.010
  H      169.572      25.678     -68.098
  P      167.305      21.167     -70.603
  C      169.189      19.463     -70.067
  O      168.097      20.220     -69.583
  O      167.257      20.306     -71.952
  O      165.945      21.594     -70.161
  H      166.424      19.803     -72.003
  H      170.122      19.936     -69.748
  H      169.180      19.377     -71.158
  H      169.137      18.458     -69.637
  H      170.632      23.422     -63.696
  H      169.793      22.625     -65.006
  H      168.891      23.274     -63.658

 3  4  5  6  7  8  9  10  11  12  23  26  30  31 0
 6-311+G(2d,p)
 ****
 33  35  36  37  38 0
 6-311+G(2d,p)
 ****
 1  2  13  14  15  16  17  18  19  20  21  22  24  25 0
 3-21G
 ****
 27  28  29  32  34  39  40  41  42  43  44  45  46  47  48  49 0
 3-21G
 ****


