%nproc=1
%NoSave
%Mem=1900MB
#P OB98/GEN NMR

erre ene a

0 1
  C     -582.066     343.567    -526.042
  O     -582.808     344.579    -526.715
  P     -582.548     346.145    -526.414
  C     -584.629     347.241    -525.304
  O     -583.446     346.446    -525.120
  C     -585.740     346.394    -525.894
  O     -585.967     345.233    -525.050
  C     -587.070     347.109    -525.998
  O     -587.103     348.013    -527.084
  C     -588.031     345.917    -526.116
  O     -588.034     345.395    -527.469
  C     -587.354     344.895    -525.162
  N     -588.019     344.843    -523.850
  C     -589.401     344.608    -523.847
  O     -590.024     344.469    -524.909
  N     -590.050     344.502    -522.648
  C     -589.383     344.646    -521.543
  N     -590.047     344.485    -520.373
  C     -587.926     344.952    -521.509
  C     -587.321     345.016    -522.678
  O     -582.785     347.054    -527.576
  O     -581.051     346.189    -525.825
  H     -587.083     345.332    -527.744
  H     -580.375     346.304    -526.531
  H     -587.409     345.061    -520.559
  H     -586.247     345.200    -522.739
  H     -587.398     343.888    -525.625
  H     -589.074     346.154    -525.845
  H     -587.298     347.662    -525.074
  H     -585.402     346.027    -526.894
  H     -590.989     344.102    -520.455
  H     -584.384     348.046    -525.999
  H     -589.565     344.290    -519.503
  H     -584.908     347.684    -524.330
  P     -588.109     349.262    -527.021
  C     -590.123     349.278    -528.665
  O     -589.548     348.716    -527.504
  O     -587.619     350.220    -528.211
  O     -588.108     349.956    -525.687
  H     -587.095     350.945    -527.868
  H     -590.951     348.654    -528.998
  H     -589.383     349.376    -529.476
  H     -590.532     350.277    -528.395
  H     -582.387     342.604    -526.381
  H     -582.229     343.647    -524.988
  H     -581.024     343.690    -526.252

 3  4  5  6  7  8  9  10  11  12  13  23  27  28  29  30  32 0
 6-311+G(2d,p)
 ****
 34  35 0
 6-311+G(2d,p)
 ****
 1  2  14  15  16  17  18  19  20  21  22  24  25  26 0
 3-21G
 ****
 31  33  36  37  38  39  40  41  42  43  44  45  46 0
 3-21G
 ****


