%nproc=1
%NoSave
%Mem=1900MB
#P OB98/GEN NMR

erre ene a

0 1
  C       86.677    -369.970     357.813
  O       87.672    -370.520     358.661
  H       86.216    -369.122     358.325
  H       85.906    -370.714     357.606
  H       87.122    -369.617     356.878
  P       88.614    -371.686     358.091
  C       90.793    -371.436     359.453
  O       89.566    -372.152     359.296
  C       91.521    -371.950     360.697
  O       90.902    -371.425     361.898
  C       91.499    -373.469     360.850
  O       92.419    -374.083     359.963
  C       91.846    -373.618     362.327
  O       93.265    -373.499     362.536
  C       91.089    -372.418     362.945
  N       89.814    -372.789     363.541
  C       89.775    -372.851     364.946
  O       90.765    -372.639     365.654
  N       88.575    -373.198     365.493
  C       87.461    -373.587     364.800
  O       86.431    -373.980     365.343
  C       87.559    -373.535     363.344
  C       88.715    -373.139     362.780
  O       89.316    -371.386     356.815
  O       87.611    -372.929     357.932
  H       93.684    -374.129     361.918
  H       87.404    -373.061     356.987
  H       88.536    -373.261     366.498
  H       86.689    -373.820     362.758
  H       88.805    -373.100     361.709
  H       91.707    -371.935     363.716
  H       91.532    -374.575     362.724
  H       90.484    -373.841     360.677
  H       92.562    -371.581     360.662
  H       90.564    -370.367     359.581
  H       91.402    -371.574     358.562
  P       92.486    -375.686     359.868
  C       92.537    -375.608     357.294
  O       93.193    -376.064     358.481
  O       91.196    -376.392     360.140
  O       93.601    -376.076     360.955
  H       93.194    -376.651     361.635
  H       93.097    -375.917     356.436
  H       92.471    -374.540     357.311
  H       91.553    -376.025     357.248

 6  7  8  9  10  11  12  13  14  15  16  26  31  32  33  34  35 0
 6-311+G(2d,p)
 ****
 36  37 0
 6-311+G(2d,p)
 ****
 1  2  3  4  5  17  18  19  20  21  22  23  24  25 0
 3-21G
 ****
 27  28  29  30  38  39  40  41  42  43  44  45 0
 3-21G
 ****


