%nproc=1
%NoSave
%Mem=1900MB
#P OB98/GEN NMR

erre ene a

0 1
  C     -244.467    -238.786      69.425
  O     -244.415    -237.923      68.310
  H     -245.438    -239.288      69.437
  H     -244.362    -238.210      70.347
  H     -243.680    -239.542      69.365
  P     -243.019    -237.197      68.001
  C     -242.840    -238.522      65.775
  O     -242.815    -237.251      66.408
  C     -242.977    -238.361      64.260
  O     -244.339    -237.967      63.955
  C     -242.038    -237.308      63.667
  O     -241.571    -237.774      62.397
  C     -242.935    -236.100      63.461
  O     -242.457    -235.227      62.440
  C     -244.285    -236.763      63.163
  N     -245.398    -235.868      63.458
  C     -245.277    -234.547      63.015
  O     -244.264    -234.186      62.416
  N     -246.274    -233.655      63.311
  C     -247.268    -234.026      64.059
  N     -248.210    -233.086      64.342
  C     -247.403    -235.390      64.605
  C     -246.446    -236.253      64.262
  O     -241.932    -238.235      68.543
  O     -242.859    -235.839      68.598
  H     -242.024    -235.774      61.746
  H     -241.138    -237.776      68.877
  H     -248.234    -235.646      65.245
  H     -246.458    -237.274      64.621
  H     -244.343    -237.059      62.107
  H     -242.993    -235.525      64.395
  H     -241.181    -237.083      64.309
  H     -242.815    -239.338      63.791
  H     -248.072    -232.156      63.963
  H     -243.697    -239.090      66.151
  H     -249.000    -233.250      64.949
  H     -241.921    -239.068      66.018
  P     -239.987    -237.747      62.157
  C     -240.033    -239.781      60.544
  O     -239.682    -238.417      60.732
  O     -239.433    -238.820      63.208
  O     -239.373    -236.401      62.369
  H     -238.971    -238.365      63.937
  H     -239.770    -240.083      59.552
  H     -241.087    -239.901      60.686
  H     -239.506    -240.386      61.252

 6  7  8  9  10  11  12  13  14  15  16  26  30  31  32  33  35 0
 6-311+G(2d,p)
 ****
 37  38 0
 6-311+G(2d,p)
 ****
 1  2  3  4  5  17  18  19  20  21  22  23  24  25 0
 3-21G
 ****
 27  28  29  34  36  39  40  41  42  43  44  45  46 0
 3-21G
 ****


