%nproc=1
%NoSave
%Mem=1900MB
#P OB98/GEN NMR

erre ene a

0 1
  C      103.111    -453.359     594.543
  O      102.624    -452.520     595.564
  H      103.880    -452.826     593.984
  H      102.295    -453.625     593.858
  H      103.544    -454.264     594.969
  P      101.488    -453.119     596.537
  C       99.493    -451.534     595.988
  O      100.543    -451.859     596.886
  C       98.935    -450.143     596.300
  O       97.937    -450.260     597.347
  C       99.992    -449.145     596.768
  O       99.756    -447.876     596.140
  C       99.771    -449.043     598.263
  O      100.219    -447.793     598.791
  C       98.269    -449.316     598.391
  N       97.914    -449.843     599.713
  C       97.877    -448.917     600.761
  O       98.137    -447.727     600.560
  N       97.586    -449.361     602.025
  C       97.426    -450.632     602.236
  N       97.160    -451.019     603.519
  C       97.504    -451.649     601.163
  C       97.752    -451.185     599.943
  O      102.285    -453.380     597.893
  O      100.769    -454.311     596.005
  H      100.174    -447.843     599.776
  H      101.762    -453.942     598.515
  H       97.381    -452.699     601.396
  H       97.825    -451.865     599.101
  H       97.688    -448.396     598.205
  H      100.335    -449.841     598.773
  H      101.005    -449.473     596.542
  H       98.392    -449.774     595.412
  H       97.124    -450.284     604.225
  H       98.697    -452.291     596.077
  H       97.046    -451.984     603.805
  H       99.883    -451.548     594.958
  P      100.727    -447.527     594.887
  C      101.533    -445.232     595.789
  O      100.813    -445.928     594.790
  O       99.869    -447.965     593.614
  O      102.044    -448.226     594.954
  H      100.152    -448.839     593.286
  H      101.499    -444.182     595.587
  H      102.551    -445.562     595.790
  H      101.094    -445.426     596.745

 6  7  8  9  10  11  12  13  14  15  16  26  30  31  32  33  35 0
 6-311+G(2d,p)
 ****
 37  38 0
 6-311+G(2d,p)
 ****
 1  2  3  4  5  17  18  19  20  21  22  23  24  25 0
 3-21G
 ****
 27  28  29  34  36  39  40  41  42  43  44  45  46 0
 3-21G
 ****


