%nproc=1
%NoSave
%Mem=1900MB
#P OB98/GEN NMR

erre ene a

0 1
  C      101.971     -67.253      -8.003
  O      102.262     -65.889      -8.212
  H      102.107     -67.483      -6.943
  H      102.657     -67.875      -8.584
  H      100.938     -67.476      -8.283
  P      101.978     -65.289      -9.673
  C       99.619     -64.204      -9.663
  O      101.013     -64.020      -9.469
  C       99.009     -62.975     -10.340
  O       97.656     -63.293     -10.755
  C       98.948     -61.742      -9.436
  O       99.235     -60.583     -10.223
  C       97.499     -61.700      -8.984
  O       97.074     -60.387      -8.620
  C       96.778     -62.295     -10.200
  N       95.482     -62.857      -9.831
  C       94.353     -62.106     -10.168
  O       94.477     -61.021     -10.739
  N       93.115     -62.567      -9.800
  C       93.018     -63.642      -9.082
  N       91.765     -64.033      -8.723
  C       94.186     -64.431      -8.645
  C       95.374     -63.990      -9.058
  O      101.014     -66.377     -10.340
  O      103.190     -65.018     -10.500
  H       96.114     -60.419      -8.420
  H      101.151     -66.427     -11.305
  H       94.056     -65.306      -8.025
  H       96.289     -64.500      -8.781
  H       96.622     -61.527     -10.970
  H       97.369     -62.350      -8.110
  H       99.642     -61.790      -8.593
  H       99.581     -62.763     -11.252
  H       90.990     -63.455      -9.027
  H       99.140     -64.346      -8.689
  H       91.574     -64.826      -8.129
  H       99.451     -65.098     -10.273
  P      100.401     -59.620      -9.690
  C      101.945     -59.741     -11.777
  O      101.104     -58.937     -10.959
  O      101.506     -60.644      -9.149
  O       99.957     -58.673      -8.625
  H      101.532     -60.620      -8.174
  H      102.337     -59.148     -12.577
  H      101.378     -60.554     -12.181
  H      102.752     -60.126     -11.189

 6  7  8  9  10  11  12  13  14  15  16  26  30  31  32  33  35 0
 6-311+G(2d,p)
 ****
 37  38 0
 6-311+G(2d,p)
 ****
 1  2  3  4  5  17  18  19  20  21  22  23  24  25 0
 3-21G
 ****
 27  28  29  34  36  39  40  41  42  43  44  45  46 0
 3-21G
 ****


