%nproc=1
%NoSave
%Mem=1900MB
#P OB98/GEN NMR

erre ene a

0 1
  C      163.160    -224.452    -153.197
  O      164.004    -223.893    -152.208
  H      163.739    -225.163    -153.794
  H      162.782    -223.664    -153.856
  H      162.324    -224.981    -152.728
  P      163.344    -222.817    -151.219
  C      162.024    -224.607    -149.879
  O      163.025    -223.599    -149.845
  C      162.206    -225.574    -148.706
  O      163.554    -226.124    -148.751
  C      162.018    -224.924    -147.324
  O      161.356    -225.859    -146.461
  C      163.445    -224.724    -146.840
  O      163.521    -224.629    -145.420
  C      164.120    -225.956    -147.432
  N      168.359    -226.540    -144.772
  C      167.046    -226.820    -144.446
  N      166.823    -227.342    -143.214
  N      166.038    -226.614    -145.246
  C      166.407    -226.120    -146.460
  C      167.665    -225.785    -146.902
  C      168.771    -225.999    -145.994
  O      169.954    -225.750    -146.222
  N      167.620    -225.278    -148.185
  C      166.338    -225.305    -148.505
  N      165.564    -225.815    -147.495
  O      161.890    -222.571    -151.846
  O      164.109    -221.544    -151.053
  H      164.459    -224.482    -145.179
  H      161.580    -221.665    -151.667
  H      169.098    -226.705    -144.116
  H      165.922    -224.971    -149.445
  H      163.914    -226.863    -146.850
  H      163.863    -223.805    -147.272
  H      167.555    -227.558    -142.555
  H      161.452    -223.988    -147.351
  H      165.866    -227.568    -142.959
  H      161.521    -226.417    -148.840
  H      162.105    -225.162    -150.820
  H      161.039    -224.136    -149.824
  P      160.030    -225.365    -145.703
  C      157.952    -226.024    -147.122
  O      158.832    -226.375    -146.058
  O      159.640    -224.030    -146.512
  O      160.233    -225.085    -144.250
  H      159.822    -223.245    -145.948
  H      157.212    -226.788    -147.239
  H      158.511    -225.927    -148.029
  H      157.473    -225.094    -146.897

 6  7  8  9  10  11  12  13  14  15  26  29  33  34 0
 6-311+G(2d,p)
 ****
 36  38  39  40  41 0
 6-311+G(2d,p)
 ****
 1  2  3  4  5  16  17  18  19  20  21  22  23  24  25 0
 3-21G
 ****
 27  28  30  31  32  35  37  42  43  44  45  46  47 0
 3-21G
 ****
 48  49 0
 3-21G
 ****


