%nproc=1
%NoSave
%Mem=1900MB
#P OB98/GEN NMR

erre ene a

0 1
  C      -94.990      -7.445     -26.050
  O      -94.003      -8.301     -25.500
  P      -94.178      -9.881     -25.693
  C      -94.562     -11.906     -24.114
  O      -94.656     -10.500     -24.291
  C      -94.912     -12.299     -22.678
  O      -93.894     -11.792     -21.774
  C      -96.258     -11.746     -22.201
  O      -96.865     -12.684     -21.300
  C      -95.872     -10.526     -21.392
  O      -96.884     -10.183     -20.446
  C      -94.558     -10.998     -20.771
  N      -91.771      -9.170     -16.973
  C      -92.264     -10.445     -17.164
  N      -92.057     -11.327     -16.162
  N      -92.898     -10.824     -18.242
  C      -93.037      -9.834     -19.157
  C      -92.579      -8.537     -19.088
  C      -91.890      -8.129     -17.884
  O      -91.453      -7.009     -17.642
  N      -92.881      -7.838     -20.227
  C      -93.559      -8.691     -20.969
  N      -93.711      -9.904     -20.346
  O      -92.668     -10.393     -25.834
  O      -94.990     -10.278     -26.878
  H      -97.744     -10.324     -20.887
  H      -92.479     -10.614     -26.765
  H      -91.298      -8.924     -16.119
  H      -93.980      -8.477     -21.941
  H      -94.733     -11.644     -19.902
  H      -95.719      -9.667     -22.055
  H      -91.635     -11.080     -15.279
  H      -96.962     -11.509     -23.006
  H      -92.448     -12.255     -16.258
  H      -94.893     -13.392     -22.600
  H      -93.543     -12.225     -24.333
  H      -95.236     -12.409     -24.816
  P      -98.407     -13.033     -21.581
  C     -100.626     -11.687     -21.393
  O      -99.215     -11.675     -21.328
  O      -98.808     -13.953     -20.336
  O      -98.653     -13.705     -22.890
  H      -99.550     -14.539     -20.575
  H     -101.028     -11.426     -20.411
  H     -101.019     -12.663     -21.690
  H     -100.954     -10.940     -22.121
  H      -94.736      -6.427     -25.840
  H      -95.941      -7.672     -25.616
  H      -95.038      -7.590     -27.109

 3  4  5  6  7  8  9  10  11  12  23  26  30  31 0
 6-311+G(2d,p)
 ****
 33  35  36  37  38 0
 6-311+G(2d,p)
 ****
 1  2  13  14  15  16  17  18  19  20  21  22  24  25 0
 3-21G
 ****
 27  28  29  32  34  39  40  41  42  43  44  45  46  47  48  49 0
 3-21G
 ****


