%nproc=1
%NoSave
%Mem=1900MB
#P OB98/GEN NMR

erre ene a

0 1
  C       64.696     -48.810    -116.521
  O       63.789     -49.766    -116.004
  H       65.679     -49.278    -116.623
  H       64.790     -47.955    -115.843
  H       64.365     -48.466    -117.504
  P       62.312     -49.277    -115.617
  C       62.144     -49.044    -113.045
  O       62.483     -48.416    -114.277
  C       63.364     -49.756    -112.468
  O       64.488     -48.855    -112.413
  C       63.154     -50.244    -111.041
  O       62.353     -51.409    -111.019
  C       64.589     -50.428    -110.588
  O       65.135     -51.663    -111.070
  C       65.281     -49.219    -111.258
  N       65.441     -48.085    -110.353
  C       66.560     -48.124    -109.513
  O       67.347     -49.068    -109.566
  N       66.741     -47.096    -108.621
  C       65.897     -46.114    -108.581
  N       66.135     -45.129    -107.674
  C       64.713     -46.029    -109.458
  C       64.546     -47.040    -110.308
  O       61.249     -50.330    -115.543
  O       61.981     -48.167    -116.722
  H       66.047     -51.703    -110.722
  H       61.558     -48.575    -117.500
  H       64.039     -45.189    -109.394
  H       63.702     -47.056    -110.989
  H       66.274     -49.502    -111.632
  H       64.668     -50.433    -109.501
  H       62.705     -49.452    -110.434
  H       63.628     -50.585    -113.135
  H       66.955     -45.233    -107.085
  H       61.350     -49.767    -113.258
  H       65.599     -44.277    -107.613
  H       61.762     -48.309    -112.328
  P       61.489     -51.780    -109.720
  C       62.255     -53.841    -108.372
  O       62.523     -52.483    -108.709
  O       60.233     -52.540    -109.984
  O       61.236     -50.354    -109.034
  H       60.560     -49.830    -109.530
  H       63.006     -54.196    -107.698
  H       62.262     -54.437    -109.261
  H       61.295     -53.910    -107.904

 6  7  8  9  10  11  12  13  14  15  16  26  30  31  32  33  35 0
 6-311+G(2d,p)
 ****
 37  38 0
 6-311+G(2d,p)
 ****
 1  2  3  4  5  17  18  19  20  21  22  23  24  25 0
 3-21G
 ****
 27  28  29  34  36  39  40  41  42  43  44  45  46 0
 3-21G
 ****


