%nproc=1
%NoSave
%Mem=1900MB
#P OB98/GEN NMR

erre ene a

0 1
  C       27.798    -427.340     215.237
  O       28.734    -428.113     215.958
  H       27.312    -426.645     215.927
  H       27.035    -427.988     214.799
  H       28.292    -426.762     214.452
  P       29.718    -429.085     215.151
  C       31.768    -427.565     215.544
  O       30.911    -428.175     214.589
  C       32.650    -426.500     214.881
  O       31.834    -425.747     213.933
  C       33.256    -425.480     215.865
  O       34.506    -425.052     215.308
  C       32.216    -424.374     215.806
  O       32.654    -423.186     216.416
  C       31.957    -424.354     214.294
  N       30.780    -423.606     213.871
  C       30.896    -422.222     213.773
  O       31.922    -421.587     214.012
  N       29.762    -421.558     213.379
  C       28.564    -422.128     213.070
  O       27.592    -421.484     212.693
  C       28.503    -423.591     213.201
  C       29.596    -424.254     213.584
  O       29.070    -429.972     214.140
  O       30.436    -429.936     216.303
  H       30.028    -430.822     216.358
  H       31.910    -422.547     216.442
  H       29.829    -420.556     213.296
  H       27.561    -424.074     212.974
  H       29.582    -425.333     213.679
  H       32.836    -423.964     213.772
  H       31.319    -424.676     216.353
  H       33.422    -425.894     216.864
  H       33.433    -427.001     214.299
  H       32.400    -428.345     215.983
  H       31.160    -427.111     216.334
  P       35.907    -425.761     215.635
  C       36.362    -426.454     213.182
  O       36.166    -426.890     214.522
  O       36.021    -426.267     217.035
  O       37.024    -424.656     215.327
  H       37.818    -424.835     215.866
  H       36.522    -427.303     212.551
  H       37.215    -425.810     213.138
  H       35.496    -425.921     212.850

 6  7  8  9  10  11  12  13  14  15  16  27  31  32  33  34  35 0
 6-311+G(2d,p)
 ****
 36  37 0
 6-311+G(2d,p)
 ****
 1  2  3  4  5  17  18  19  20  21  22  23  24  25 0
 3-21G
 ****
 26  28  29  30  38  39  40  41  42  43  44  45 0
 3-21G
 ****


