%nproc=1
%NoSave
%Mem=1900MB
#P OB98/GEN NMR

erre ene a

0 1
  C      785.088     317.962    -199.253
  O      785.188     317.933    -197.843
  H      785.427     318.942    -199.606
  H      784.043     317.824    -199.563
  H      785.725     317.196    -199.689
  P      784.695     316.592    -197.117
  C      782.354     317.489    -196.453
  O      783.100     316.604    -197.286
  C      780.864     317.391    -196.756
  O      780.574     317.978    -198.044
  C      780.327     315.963    -196.817
  O      780.028     315.485    -195.512
  C      779.064     316.163    -197.637
  O      778.001     316.646    -196.782
  C      779.468     317.251    -198.643
  N      777.892     315.483    -203.188
  C      777.229     315.701    -202.046
  N      777.720     316.130    -200.853
  C      779.053     316.331    -200.940
  C      779.863     316.151    -202.045
  C      779.229     315.713    -203.228
  N      779.918     315.488    -204.406
  N      781.166     316.462    -201.753
  C      781.136     316.874    -200.497
  N      779.882     316.783    -199.951
  O      785.208     316.380    -195.731
  O      785.148     315.483    -198.185
  H      778.141     317.608    -196.681
  H      784.971     315.796    -199.089
  H      776.161     315.511    -202.074
  H      781.984     317.284    -199.962
  H      778.661     317.977    -198.812
  H      778.701     315.233    -198.095
  H      781.010     315.294    -197.361
  H      780.321     317.983    -195.995
  H      782.692     318.519    -196.604
  H      779.426     314.989    -205.135
  H      780.926     315.531    -204.373
  H      782.550     317.213    -195.415
  P      780.177     313.927    -195.146
  C      777.759     313.249    -195.700
  O      779.120     313.177    -196.089
  O      780.070     313.626    -193.693
  O      781.595     313.509    -195.768
  H      781.888     312.670    -195.375
  H      777.158     312.713    -196.405
  H      777.450     314.273    -195.673
  H      777.642     312.815    -194.729

 6  7  8  9  10  11  12  13  14  15  25  28  32  33  34  35 0
 6-311+G(2d,p)
 ****
 36  39  40 0
 6-311+G(2d,p)
 ****
 1  2  3  4  5  16  17  18  19  20  21  22  23  24 0
 3-21G
 ****
 26  27  29  30  31  37  38  41  42  43  44  45  46  47 0
 3-21G
 ****
 48 0
 3-21G
 ****


