%nproc=1
%NoSave
%Mem=1900MB
#P OB98/GEN NMR

erre ene a

0 1
  C        9.763     117.506    -606.821
  O        9.361     116.264    -607.375
  P        9.163     115.023    -606.378
  C       10.693     113.596    -607.899
  O        9.439     113.697    -607.234
  C       10.913     112.194    -608.442
  O       11.086     111.273    -607.322
  C        9.761     111.652    -609.293
  O       10.295     110.976    -610.446
  C        9.117     110.592    -608.411
  O        8.434     109.596    -609.171
  C       10.346     110.090    -607.651
  N       10.921     105.573    -605.468
  C       11.572     106.102    -606.555
  N       12.449     105.293    -607.191
  N       11.368     107.320    -606.999
  C       10.483     108.024    -606.248
  C        9.785     107.605    -605.137
  C        9.961     106.236    -604.697
  O        9.360     105.673    -603.793
  N        8.990     108.605    -604.640
  C        9.201     109.637    -605.450
  N       10.061     109.311    -606.469
  O        7.590     115.007    -606.135
  O        9.913     115.127    -605.079
  H        8.051     108.966    -608.533
  H        7.390     115.061    -605.180
  H       11.102     104.627    -605.178
  H        8.736     110.612    -605.351
  H       10.973     109.474    -608.318
  H        8.399     111.072    -607.740
  H       12.678     104.361    -606.882
  H        9.034     112.409    -609.617
  H       12.949     105.681    -607.985
  H       11.860     112.176    -609.003
  H       11.496     113.841    -607.198
  H       10.715     114.321    -608.728
  P       10.163     111.773    -611.847
  C        8.269     110.232    -612.779
  O        9.604     110.707    -612.902
  O       11.692     111.987    -612.290
  O        9.410     113.059    -611.746
  H       11.764     112.765    -612.884
  H        7.705     110.812    -612.030
  H        8.290     109.186    -612.483
  H        7.777     110.328    -613.749
  H        9.853     118.232    -607.602
  H       10.707     117.389    -606.332
  H        9.032     117.833    -606.112

 3  4  5  6  7  8  9  10  11  12  23  26  30  31  33  0
 6-311+G(2d,p)
 ****
 35  36  37  38 0
 6-311+G(2d,p)
 ****
 1  2  13  14  15  16  17  18  19  20  21  22  24  25  27  28  29 0
 3-21G
 ****
 32  34  39  40  41  42  43  44  45  46  47  48  49 0
 3-21G
 ****


