%nproc=1
%NoSave
%Mem=1900MB
#P OB98/GEN NMR

erre ene a

0 1
  C      278.688     -26.252     151.180
  O      279.658     -27.081     150.573
  H      279.151     -25.729     152.021
  H      277.855     -26.854     151.554
  H      278.322     -25.516     150.461
  P      279.146     -28.028     149.380
  C      278.914     -30.205     150.796
  O      278.257     -29.135     150.134
  C      278.094     -31.484     150.661
  O      276.901     -31.413     151.476
  C      277.597     -31.771     149.247
  O      278.598     -32.301     148.396
  C      276.516     -32.792     149.552
  O      277.124     -34.056     149.877
  C      275.854     -32.155     150.793
  N      274.735     -31.272     150.455
  C      273.559     -31.890     150.015
  O      273.488     -33.113     149.920
  N      272.493     -31.100     149.655
  C      272.583     -29.810     149.746
  N      271.497     -29.081     149.374
  C      273.796     -29.118     150.216
  C      274.821     -29.899     150.551
  O      280.456     -28.850     148.970
  O      278.465     -27.340     148.246
  H      277.562     -33.940     150.740
  H      280.217     -29.571     148.337
  H      273.829     -28.039     150.263
  H      275.747     -29.462     150.907
  H      275.494     -32.925     151.486
  H      275.839     -32.971     148.717
  H      277.131     -30.887     148.797
  H      278.702     -32.312     151.044
  H      270.701     -29.581     148.998
  H      279.024     -29.939     151.853
  H      271.520     -28.075     149.265
  H      279.906     -30.363     150.364
  P      278.608     -31.800     146.870
  C      277.236     -33.861     146.065
  O      277.325     -32.445     146.160
  O      279.830     -32.605     146.230
  O      278.758     -30.321     146.696
  H      280.282     -32.071     145.548
  H      276.327     -34.129     145.568
  H      277.244     -34.286     147.047
  H      278.070     -34.234     145.508

 6  7  8  9  10  11  12  13  14  15  16  26  30  31  32  33  35 0
 6-311+G(2d,p)
 ****
 37  38 0
 6-311+G(2d,p)
 ****
 1  2  3  4  5  17  18  19  20  21  22  23  24  25 0
 3-21G
 ****
 27  28  29  34  36  39  40  41  42  43  44  45  46 0
 3-21G
 ****


