%nproc=1
%NoSave
%Mem=1900MB
#P OB98/GEN NMR

erre ene a

0 1
  C      124.601     205.992     -49.242
  O      123.728     205.578     -48.205
  P      123.442     206.590     -46.996
  C      125.264     205.584     -45.435
  O      124.796     206.722     -46.142
  C      125.914     206.008     -44.115
  O      126.296     204.818     -43.361
  C      127.178     206.866     -44.285
  O      127.223     207.794     -43.192
  C      128.289     205.843     -44.134
  O      129.543     206.426     -43.812
  C      127.694     204.959     -43.032
  N      128.355     203.660     -42.924
  C      129.584     203.621     -42.270
  O      130.136     204.609     -41.784
  N      130.205     202.402     -42.242
  C      129.776     201.266     -42.864
  O      130.438     200.233     -42.899
  C      128.473     201.366     -43.540
  C      127.833     202.538     -43.539
  O      122.469     205.752     -46.041
  O      122.840     207.893     -47.403
  H      129.434     206.914     -42.975
  H      121.542     206.029     -46.174
  H      131.093     202.352     -41.763
  H      128.092     200.476     -44.026
  H      126.878     202.645     -44.048
  H      127.743     205.476     -42.065
  H      128.406     205.288     -45.071
  H      127.220     207.399     -45.243
  H      125.166     206.548     -43.515
  H      126.002     205.060     -46.044
  H      124.431     204.896     -45.252
  P      127.310     209.361     -43.542
  C      129.630     209.000     -44.697
  O      128.311     209.501     -44.784
  O      128.164     209.896     -42.296
  O      125.977     210.022     -43.678
  H      128.913     209.312     -42.077
  H      129.676     208.096     -44.083
  H      130.278     209.765     -44.260
  H      129.986     208.764     -45.702
  H      124.688     205.211     -49.968
  H      125.566     206.207     -48.832
  H      124.208     206.871     -49.709

 3  4  5  6  7  8  9  10  11  12  13  23  28  29  30  31  32 0
 6-311+G(2d,p)
 ****
 33  34 0
 6-311+G(2d,p)
 ****
 1  2  14  15  16  17  18  19  20  21  22  24  25  26 0
 3-21G
 ****
 27  35  36  37  38  39  40  41  42  43  44  45 0
 3-21G
 ****


