%nproc=1
%NoSave
%Mem=1900MB
#P OB98/GEN NMR

erre ene a

0 1
  C     -165.397    -424.871     479.328
  O     -165.273    -423.616     478.686
  H     -164.441    -425.394     479.258
  H     -166.166    -425.481     478.850
  H     -165.637    -424.727     480.384
  P     -166.612    -422.773     478.412
  C     -168.249    -422.710     476.416
  O     -167.327    -423.494     477.161
  C     -169.586    -423.433     476.236
  O     -169.387    -424.726     475.627
  C     -170.309    -423.726     477.540
  O     -170.777    -422.585     478.224
  C     -171.306    -424.794     477.110
  O     -172.474    -424.239     476.514
  C     -170.484    -425.566     476.052
  N     -170.011    -426.858     476.545
  C     -170.895    -427.928     476.391
  O     -172.017    -427.818     475.890
  N     -170.455    -429.132     476.858
  C     -169.266    -429.359     477.494
  O     -168.935    -430.467     477.909
  C     -168.392    -428.183     477.664
  C     -168.799    -427.003     477.183
  O     -166.422    -421.295     478.227
  O     -167.567    -423.152     479.639
  H     -172.872    -423.640     477.175
  H     -168.318    -422.516     479.717
  H     -171.067    -429.925     476.744
  H     -167.450    -428.327     478.175
  H     -168.172    -426.124     477.301
  H     -171.092    -425.749     475.153
  H     -171.631    -425.414     477.950
  H     -169.605    -424.218     478.223
  H     -170.205    -422.835     475.558
  H     -167.804    -422.519     475.431
  H     -168.404    -421.749     476.924
  P     -170.924    -422.499     479.812
  C     -172.882    -422.069     481.487
  O     -172.487    -422.439     480.174
  O     -170.002    -421.563     480.522
  O     -170.530    -424.004     480.254
  H     -170.073    -423.940     481.124
  H     -173.950    -422.080     481.555
  H     -172.521    -421.085     481.704
  H     -172.473    -422.763     482.191

 6  7  8  9  10  11  12  13  14  15  16  26  31  32  33  34  35 0
 6-311+G(2d,p)
 ****
 36  37 0
 6-311+G(2d,p)
 ****
 1  2  3  4  5  17  18  19  20  21  22  23  24  25 0
 3-21G
 ****
 27  28  29  30  38  39  40  41  42  43  44  45 0
 3-21G
 ****


