%nproc=1
%NoSave
%Mem=1900MB
#P OB98/GEN NMR

erre ene a

0 1
  C     -291.516     -79.056    -199.967
  O     -292.889     -79.070    -199.630
  H     -291.408     -78.627    -200.968
  H     -291.108     -80.068    -199.975
  H     -290.962     -78.432    -199.262
  P     -293.327     -79.760    -198.249
  C     -294.041     -82.045    -199.252
  O     -293.071     -81.330    -198.494
  C     -294.404     -83.349    -198.543
  O     -293.339     -84.315    -198.653
  C     -294.655     -83.216    -197.041
  O     -295.895     -82.603    -196.726
  C     -294.607     -84.680    -196.638
  O     -295.834     -85.327    -197.021
  C     -293.425     -85.196    -197.493
  N     -292.156     -85.202    -196.768
  C     -291.169     -86.077    -197.247
  O     -291.385     -86.790    -198.223
  N     -289.967     -86.149    -196.577
  C     -289.776     -85.430    -195.515
  N     -288.587     -85.579    -194.862
  C     -290.780     -84.487    -194.984
  C     -291.933     -84.425    -195.650
  O     -294.687     -79.407    -197.734
  O     -292.145     -79.398    -197.230
  H     -295.655     -86.286    -197.044
  H     -292.376     -79.795    -196.354
  H     -290.569     -83.915    -194.093
  H     -292.728     -83.768    -195.312
  H     -293.622     -86.203    -197.872
  H     -294.485     -84.830    -195.559
  H     -293.827     -82.692    -196.553
  H     -295.276     -83.775    -199.060
  H     -287.943     -86.264    -195.232
  H     -293.624     -82.240    -200.242
  H     -288.472     -85.273    -193.902
  H     -294.950     -81.445    -199.360
  P     -295.911     -81.488    -195.569
  C     -296.726     -83.251    -193.837
  O     -295.763     -82.270    -194.175
  O     -297.437     -80.993    -195.570
  O     -294.941     -80.359    -195.746
  H     -297.548     -80.206    -196.136
  H     -296.485     -83.674    -192.884
  H     -296.726     -84.021    -194.580
  H     -297.695     -82.799    -193.791

 6  7  8  9  10  11  12  13  14  15  16  26  30  31  32  33  35 0
 6-311+G(2d,p)
 ****
 37  38 0
 6-311+G(2d,p)
 ****
 1  2  3  4  5  17  18  19  20  21  22  23  24  25 0
 3-21G
 ****
 27  28  29  34  36  39  40  41  42  43  44  45  46 0
 3-21G
 ****


