%nproc=1
%NoSave
%Mem=1900MB
#P OB98/GEN NMR

erre ene a

0 1
  C      -31.069      40.827       5.488
  O      -31.044      41.763       4.425
  H      -32.049      40.340       5.502
  H      -30.916      41.340       6.442
  H      -30.297      40.068       5.341
  P      -29.689      42.607       4.250
  C      -28.470      44.394       5.687
  O      -29.681      43.690       5.437
  C      -28.765      45.756       6.308
  O      -29.271      46.673       5.309
  C      -29.792      45.729       7.430
  O      -29.195      45.358       8.664
  C      -30.281      47.170       7.425
  O      -29.372      48.039       8.131
  C      -30.298      47.497       5.924
  N      -34.753      49.567       4.760
  C      -33.646      50.118       5.372
  N      -33.766      51.402       5.784
  N      -32.528      49.473       5.574
  C      -32.568      48.190       5.140
  C      -33.597      47.533       4.505
  C      -34.818      48.271       4.258
  O      -35.810      47.860       3.664
  N      -33.248      46.241       4.202
  C      -32.030      46.106       4.687
  N      -31.578      47.258       5.283
  O      -29.969      43.496       2.946
  O      -28.444      41.799       4.105
  H      -28.473      47.907       7.788
  H      -29.126      43.655       2.482
  H      -35.580      50.120       4.616
  H      -31.439      45.203       4.635
  H      -30.033      48.545       5.727
  H      -31.253      47.270       7.916
  H      -34.670      51.822       5.958
  H      -30.627      45.061       7.180
  H      -32.967      51.807       6.253
  H      -27.811      46.166       6.668
  H      -27.938      44.536       4.738
  H      -27.843      43.802       6.363
  P      -30.057      44.445       9.666
  C      -32.097      44.922      11.217
  O      -30.974      45.449      10.520
  O      -28.973      43.945      10.732
  O      -30.771      43.309       9.018
  H      -29.319      43.174      11.226
  H      -32.600      45.713      11.733
  H      -31.767      44.189      11.923
  H      -32.769      44.468      10.519

 6  7  8  9  10  11  12  13  14  15  26  29  33  34 0
 6-311+G(2d,p)
 ****
 36  38  39  40  41 0
 6-311+G(2d,p)
 ****
 1  2  3  4  5  16  17  18  19  20  21  22  23  24  25 0
 3-21G
 ****
 27  28  30  31  32  35  37  42  43  44  45  46  47 0
 3-21G
 ****
 48  49 0
 3-21G
 ****


