%nproc=1
%NoSave
%Mem=1900MB
#P OB98/GEN NMR

erre ene a

0 1
  C      123.299    -899.040      84.685
  O      121.895    -899.100      84.527
  H      123.731    -900.000      84.359
  H      123.559    -898.880      85.735
  H      123.723    -898.240      84.065
  P      121.015    -897.860      85.002
  C      120.341    -897.620      82.514
  O      120.770    -896.950      83.690
  C      119.682    -896.620      81.547
  O      118.508    -896.070      82.215
  C      120.612    -895.460      81.181
  O      120.743    -895.270      79.773
  C      120.050    -894.290      81.998
  O      120.311    -893.020      81.458
  C      118.551    -894.650      82.129
  N      117.913    -894.040      83.292
  C      118.009    -892.660      83.420
  O      118.580    -891.920      82.618
  N      117.396    -892.120      84.534
  C      116.727    -892.830      85.490
  O      116.196    -892.270      86.453
  C      116.658    -894.280      85.298
  C      117.250    -894.810      84.237
  O      121.517    -897.120      86.191
  O      119.561    -898.500      85.270
  H      121.284    -892.880      81.479
  H      119.426    -898.600      86.231
  H      117.453    -891.130      84.621
  H      116.179    -894.850      86.060
  H      117.253    -895.890      84.075
  H      118.017    -894.340      81.229
  H      120.509    -894.320      82.993
  H      121.631    -895.660      81.512
  H      119.347    -897.170      80.650
  H      119.620    -898.400      82.807
  H      121.211    -898.080      82.031
  P      121.238    -896.390      78.746
  C      119.296    -896.190      76.993
  O      119.949    -896.970      77.994
  O      122.203    -897.390      79.282
  O      122.007    -895.540      77.591
  H      122.741    -896.120      77.280
  H      118.461    -896.735      76.604
  H      119.984    -895.978      76.201
  H      118.953    -895.272      77.423

 6  7  8  9  10  11  12  13  14  15  16  26  31  32  33  34  35 0
 6-311+G(2d,p)
 ****
 36  37 0
 6-311+G(2d,p)
 ****
 1  2  3  4  5  17  18  19  20  21  22  23  24  25 0
 3-21G
 ****
 27  28  29  30  38  39  40  41  42  43  44  45 0
 3-21G
 ****


