%nproc=1
%NoSave
%Mem=1900MB
#P OB98/GEN NMR

erre ene a

0 1
  C      205.778    -242.056      -4.202
  O      205.105    -242.609      -5.313
  H      206.358    -242.827      -3.691
  H      206.460    -241.277      -4.554
  H      205.060    -241.609      -3.509
  P      204.077    -243.805      -5.015
  C      202.036    -242.346      -5.671
  O      202.661    -243.130      -4.663
  C      200.605    -242.830      -5.893
  O      199.874    -242.676      -4.650
  C      199.838    -242.078      -6.994
  O      199.387    -242.995      -7.996
  C      198.621    -241.505      -6.284
  O      197.426    -241.591      -7.059
  C      198.530    -242.337      -5.011
  N      194.691    -239.158      -3.945
  C      194.879    -240.021      -4.968
  N      195.872    -240.918      -5.139
  C      196.721    -240.890      -4.097
  C      196.647    -240.084      -2.974
  C      195.582    -239.169      -2.926
  N      195.422    -238.251      -1.912
  N      197.707    -240.335      -2.120
  C      198.430    -241.246      -2.740
  N      197.883    -241.597      -3.946
  O      204.581    -244.378      -3.606
  O      204.026    -244.870      -6.059
  H      196.688    -241.375      -6.459
  H      204.643    -245.351      -3.652
  H      194.136    -239.982      -5.759
  H      199.371    -241.649      -2.388
  H      197.974    -243.270      -5.168
  H      198.809    -240.448      -6.056
  H      200.433    -241.285      -7.457
  H      200.636    -243.903      -6.117
  H      202.593    -242.445      -6.609
  H      194.701    -237.557      -2.017
  H      196.143    -238.180      -1.208
  H      202.049    -241.296      -5.365
  P      199.899    -242.727      -9.499
  C      202.206    -243.906      -9.735
  O      201.502    -242.703      -9.461
  O      199.512    -241.192      -9.739
  O      199.284    -243.628     -10.517
  H      199.377    -241.028     -10.693
  H      203.259    -243.726      -9.671
  H      201.962    -244.246     -10.720
  H      201.928    -244.653      -9.021

 6  7  8  9  10  11  12  13  14  15  25  28  32  33  34  35 0
 6-311+G(2d,p)
 ****
 36  39  40 0
 6-311+G(2d,p)
 ****
 1  2  3  4  5  16  17  18  19  20  21  22  23  24 0
 3-21G
 ****
 26  27  29  30  31  37  38  41  42  43  44  45  46  47  48 0
 3-21G
 ****


