%nproc=1
%NoSave
%Mem=1900MB
#P OB98/GEN NMR

erre ene a

0 1
  C     -899.465    -891.090    -891.940
  O     -898.045    -890.850    -891.800
  P     -897.045    -892.070    -892.020
  C     -896.295    -891.560    -894.400
  O     -896.945    -892.490    -893.570
  C     -895.715    -892.280    -895.720
  O     -894.595    -893.110    -895.350
  C     -896.755    -893.170    -896.400
  O     -896.535    -893.150    -897.790
  C     -896.435    -894.610    -895.860
  O     -896.945    -895.630    -896.680
  C     -894.835    -894.420    -895.840
  N     -892.095    -898.760    -895.740
  C     -892.595    -898.030    -896.760
  N     -893.325    -896.870    -896.700
  C     -893.565    -896.550    -895.380
  C     -893.095    -897.200    -894.260
  C     -892.365    -898.380    -894.440
  N     -891.885    -899.140    -893.450
  N     -893.595    -896.580    -893.100
  C     -894.235    -895.510    -893.610
  N     -894.215    -895.410    -894.950
  O     -897.885    -893.380    -891.350
  O     -895.735    -891.930    -891.300
  H     -896.675    -895.460    -897.610
  H     -897.535    -893.580    -890.470
  H     -892.335    -898.350    -897.780
  H     -894.815    -894.810    -892.890
  H     -894.415    -894.570    -896.810
  H     -896.815    -894.750    -894.840
  H     -897.835    -892.950    -896.180
  H     -895.425    -891.450    -896.430
  H     -895.455    -891.110    -893.850
  H     -891.375    -900.000    -893.620
  H     -892.085    -898.930    -892.470
  H     -896.975    -890.760    -894.670
  P     -897.375    -892.080    -898.690
  C     -895.135    -890.710    -899.040
  O     -896.525    -890.670    -898.650
  O     -898.625    -891.740    -897.680
  O     -897.825    -892.580    -900.000
  H     -899.425    -891.500    -898.260
  H     -894.905    -889.820    -899.590
  H     -894.935    -891.610    -899.600
  H     -894.485    -890.680    -898.090
  H     -900.000    -890.180    -891.763
  H     -899.774    -891.829    -891.230
  H     -899.672    -891.439    -892.930

 3  4  5  6  7  8  9  10  11  12  22  25  29  30  31  32 0
 6-311+G(2d,p)
 ****
 33  36  37 0
 6-311+G(2d,p)
 ****
 1  2  13  14  15  16  17  18  19  20  21  23  24  26 0
 3-21G
 ****
 27  28  34  35  38  39  40  41  42  43  44  45  46  47  48 0
 3-21G
 ****


