%nproc=1
%NoSave
%Mem=1900MB
#P OB98/GEN NMR

erre ene a

0 1
  C      563.414      48.817      64.163
  O      562.620      49.985      64.069
  P      562.437      50.641      62.618
  C      560.200      51.691      63.460
  O      561.428      51.886      62.782
  C      560.052      52.720      64.580
  O      560.202      54.059      64.049
  C      558.699      52.702      65.268
  O      558.602      51.638      66.199
  C      558.658      54.086      65.916
  O      559.359      54.090      67.170
  C      559.401      54.943      64.872
  N      558.479      55.751      64.062
  C      557.727      56.686      64.764
  O      557.786      56.814      65.994
  N      556.858      57.438      64.013
  C      556.654      57.316      62.670
  O      555.814      57.983      62.066
  C      557.466      56.290      61.984
  C      558.327      55.575      62.708
  O      561.564      49.557      61.811
  O      563.709      50.965      61.907
  H      558.871      53.469      67.762
  H      561.852      49.531      60.879
  H      556.320      58.140      64.498
  H      557.322      56.172      60.917
  H      558.924      54.808      62.228
  H      560.096      55.616      65.374
  H      557.631      54.405      66.118
  H      557.895      52.624      64.515
  H      560.858      52.559      65.303
  H      560.170      50.689      63.873
  H      559.372      51.791      62.741
  P      557.501      50.507      65.925
  C      559.145      48.793      67.016
  O      557.836      49.332      66.958
  O      557.993      49.966      64.494
  O      556.104      51.035      65.942
  H      558.957      50.012      64.398
  H      559.901      49.554      66.846
  H      559.238      47.997      66.266
  H      559.296      48.358      68.014
  H      563.449      48.491      65.181
  H      564.406      49.031      63.823
  H      562.987      48.046      63.556

 3  4  5  6  7  8  9  10  11  12  13  23  28  29  30  31  32 0
 6-311+G(2d,p)
 ****
 33  34 0
 6-311+G(2d,p)
 ****
 1  2  14  15  16  17  18  19  20  21  22  24  25  26 0
 3-21G
 ****
 27  35  36  37  38  39  40  41  42  43  44  45 0
 3-21G
 ****


