%nproc=1
%NoSave
%Mem=1900MB
#P OB98/GEN NMR

erre ene a

0 1
  C      116.496     566.447     -60.829
  O      117.689     565.715     -60.659
  H      115.755     566.087     -60.108
  H      116.108     566.288     -61.840
  H      116.653     567.516     -60.662
  P      119.051     566.314     -61.243
  C      119.679     566.873     -63.686
  O      119.164     565.896     -62.790
  C      119.428     566.494     -65.145
  O      118.009     566.315     -65.366
  C      119.889     567.577     -66.118
  O      121.258     567.482     -66.498
  C      118.974     567.335     -67.318
  O      119.534     566.367     -68.222
  C      117.690     566.789     -66.678
  N      112.847     568.016     -67.772
  C      113.582     566.927     -68.200
  N      112.955     566.085     -69.045
  N      114.818     566.706     -67.833
  C      115.345     567.689     -67.060
  C      114.718     568.821     -66.594
  C      113.329     569.027     -66.942
  O      112.629     569.964     -66.578
  N      115.583     569.611     -65.868
  C      116.743     568.993     -65.976
  N      116.629     567.785     -66.618
  O      120.183     565.408     -60.556
  O      119.293     567.766     -60.948
  H      118.922     566.272     -68.983
  H      120.990     565.937     -60.424
  H      111.894     568.127     -68.064
  H      117.684     569.354     -65.566
  H      117.292     565.935     -67.240
  H      118.829     568.257     -67.892
  H      112.032     566.256     -69.427
  H      119.677     568.577     -65.724
  H      113.512     565.383     -69.528
  H      119.909     565.528     -65.354
  H      120.748     566.936     -63.490
  H      119.246     567.853     -63.463
  P      122.067     568.779     -66.960
  C      121.519     570.630     -68.740
  O      121.482     569.269     -68.357
  O      123.507     568.180     -67.349
  O      122.172     569.869     -65.940
  H      124.137     568.310     -66.617
  H      121.077     570.740     -69.708
  H      122.535     570.964     -68.772
  H      120.973     571.215     -68.030

 6  7  8  9  10  11  12  13  14  15  26  29  33  34 0
 6-311+G(2d,p)
 ****
 36  38  39  40  41 0
 6-311+G(2d,p)
 ****
 1  2  3  4  5  16  17  18  19  20  21  22  23  24  25 0
 3-21G
 ****
 27  28  30  31  32  35  37  42  43  44  45  46  47 0
 3-21G
 ****
 48  49 0
 3-21G
 ****


