%nproc=1
%NoSave
%Mem=1900MB
#P OB98/GEN NMR

erre ene a

0 1
  C     -144.551    -272.941     164.993
  O     -145.944    -272.719     165.062
  H     -144.333    -273.749     164.289
  H     -144.065    -272.027     164.641
  H     -144.157    -273.191     165.982
  P     -146.838    -273.963     165.544
  C     -148.976    -272.952     166.596
  O     -148.373    -273.499     165.432
  C     -148.639    -271.467     166.710
  O     -149.162    -270.793     165.536
  C     -149.230    -270.783     167.956
  O     -148.218    -270.043     168.651
  C     -150.245    -269.804     167.394
  O     -150.340    -268.605     168.154
  C     -149.725    -269.554     165.986
  N     -152.520    -265.527     164.581
  C     -151.323    -265.609     165.203
  N     -150.587    -266.709     165.461
  C     -151.188    -267.809     164.975
  C     -152.395    -267.878     164.299
  C     -153.085    -266.666     164.123
  N     -154.331    -266.589     163.540
  N     -152.694    -269.186     163.961
  C     -151.705    -269.896     164.462
  N     -150.779    -269.110     165.097
  O     -146.573    -274.013     167.124
  O     -146.502    -275.260     164.891
  H     -150.943    -268.005     167.677
  H     -146.166    -274.871     167.347
  H     -150.903    -264.666     165.544
  H     -151.632    -270.977     164.436
  H     -148.927    -268.798     165.975
  H     -151.232    -270.285     167.378
  H     -149.697    -271.494     168.645
  H     -147.549    -271.351     166.690
  H     -148.600    -273.471     167.483
  H     -154.804    -265.700     163.560
  H     -154.804    -267.448     163.299
  H     -150.061    -273.095     166.538
  P     -147.811    -270.593     170.107
  C     -145.374    -269.774     169.739
  O     -146.509    -269.787     170.596
  O     -147.267    -272.067     169.800
  O     -148.945    -270.622     171.076
  H     -147.766    -272.723     170.323
  H     -144.591    -269.203     170.193
  H     -145.640    -269.332     168.802
  H     -145.037    -270.777     169.578

 6  7  8  9  10  11  12  13  14  15  25  28  32  33  34  35 0
 6-311+G(2d,p)
 ****
 36  39  40 0
 6-311+G(2d,p)
 ****
 1  2  3  4  5  16  17  18  19  20  21  22  23  24 0
 3-21G
 ****
 26  27  29  30  31  37  38  41  42  43  44  45  46  47  48 0
 3-21G
 ****


