%nproc=1
%NoSave
%Mem=1900MB
#P OB98/GEN NMR

erre ene a

0 1
  C      141.493     516.559     448.482
  O      140.885     517.777     448.892
  P      141.613     519.195     448.646
  C      139.609     520.494     447.648
  O      140.845     519.836     447.391
  C      138.724     520.443     446.405
  O      138.359     519.069     446.114
  C      137.408     521.200     446.528
  O      137.614     522.601     446.406
  C      136.597     520.553     445.408
  O      136.963     521.123     444.141
  C      137.062     519.081     445.483
  N      136.115     518.226     446.197
  C      135.237     517.482     445.411
  O      135.269     517.544     444.175
  N      134.343     516.637     446.032
  C      134.313     516.570     447.334
  N      133.456     515.672     447.898
  C      135.190     517.383     448.202
  C      136.060     518.173     447.571
  O      143.093     519.118     448.494
  O      141.125     520.107     449.860
  H      136.799     522.082     444.210
  H      141.700     520.044     450.664
  H      135.130     517.294     449.277
  H      136.752     518.790     448.133
  H      137.207     518.679     444.468
  H      135.512     520.677     445.533
  H      136.930     520.988     447.498
  H      139.308     520.828     445.546
  H      133.018     515.015     447.266
  H      139.816     521.534     447.906
  H      133.590     515.355     448.850
  H      139.117     519.999     448.503
  P      137.711     523.448     447.772
  C      139.808     524.874     447.216
  O      139.263     523.800     447.960
  O      137.404     522.361     448.906
  O      136.774     524.620     447.834
  H      136.479     522.441     449.210
  H      140.787     525.131     447.626
  H      139.156     525.757     447.274
  H      139.929     524.573     446.169
  H      140.854     515.739     448.734
  H      142.433     516.445     448.980
  H      141.649     516.577     447.424

 3  4  5  6  7  8  9  10  11  12  13  23  27  28  29  30  32 0
 6-311+G(2d,p)
 ****
 34  35 0
 6-311+G(2d,p)
 ****
 1  2  14  15  16  17  18  19  20  21  22  24  25  26 0
 3-21G
 ****
 31  33  36  37  38  39  40  41  42  43  44  45  46 0
 3-21G
 ****


