%nproc=1
%NoSave
%Mem=1900MB
#P OB98/GEN NMR

erre ene a

0 1
  C     1209.810    -627.252     450.164
  O     1210.592    -627.098     451.342
  H     1210.238    -626.599     449.375
  H     1208.786    -626.929     450.349
  H     1209.844    -628.279     449.826
  P     1210.109    -627.942     452.628
  C     1212.193    -629.494     452.576
  O     1211.447    -628.528     453.313
  C     1213.655    -629.495     453.021
  O     1214.283    -628.214     452.695
  C     1213.865    -629.713     454.515
  O     1213.830    -631.095     454.839
  C     1215.251    -629.093     454.728
  O     1216.287    -629.999     454.332
  C     1215.195    -627.872     453.790
  N     1216.409    -623.058     454.770
  C     1217.075    -624.030     454.065
  N     1218.283    -623.665     453.546
  N     1216.638    -625.240     453.845
  C     1215.423    -625.450     454.396
  C     1214.649    -624.576     455.158
  C     1215.152    -623.242     455.363
  O     1214.565    -622.336     455.918
  N     1213.482    -625.169     455.568
  C     1213.560    -626.433     455.114
  N     1214.749    -626.654     454.438
  O     1209.430    -629.252     451.972
  O     1209.173    -627.231     453.540
  H     1216.227    -630.136     453.386
  H     1208.718    -629.558     452.563
  H     1216.808    -622.158     454.889
  H     1212.812    -627.195     455.264
  H     1216.179    -627.670     453.340
  H     1215.405    -628.821     455.776
  H     1218.816    -622.908     453.967
  H     1213.115    -629.159     455.105
  H     1218.807    -624.390     453.034
  H     1214.193    -630.264     452.452
  H     1212.145    -629.252     451.504
  H     1211.754    -630.484     452.728
  P     1213.309    -631.496     456.310
  C     1210.918    -631.960     455.385
  O     1212.057    -632.461     456.114
  O     1212.659    -630.141     456.864
  O     1214.373    -632.010     457.226
  H     1212.551    -630.187     457.841
  H     1210.164    -632.717     455.337
  H     1211.219    -631.693     454.393
  H     1210.527    -631.098     455.883

 6  7  8  9  10  11  12  13  14  15  26  29  33  34 0
 6-311+G(2d,p)
 ****
 36  38  39  40  41 0
 6-311+G(2d,p)
 ****
 1  2  3  4  5  16  17  18  19  20  21  22  23  24  25 0
 3-21G
 ****
 27  28  30  31  32  35  37  42  43  44  45  46  47 0
 3-21G
 ****
 48  49 0
 3-21G
 ****


