%nproc=1
%NoSave
%Mem=1900MB
#P OB98/GEN NMR

erre ene a

0 1
  C        6.030    -893.420    -392.221
  O        5.311    -894.530    -392.788
  P        5.341    -895.950    -392.050
  C        2.858    -895.790    -391.244
  O        4.226    -895.940    -390.897
  C        1.951    -896.130    -390.058
  O        2.158    -897.490    -389.646
  C        2.231    -895.290    -388.809
  O        1.673    -893.990    -388.920
  C        1.574    -896.140    -387.729
  O        0.142    -895.910    -387.678
  C        1.861    -897.580    -388.231
  N        2.931    -898.220    -387.468
  C        2.737    -898.350    -386.099
  O        1.740    -897.910    -385.525
  N        3.732    -899.010    -385.418
  C        4.903    -899.450    -385.938
  O        5.766    -900.000    -385.270
  C        5.100    -899.200    -387.384
  C        4.131    -898.620    -388.068
  O        6.696    -895.840    -391.193
  O        5.358    -897.150    -392.938
  H       -0.200    -896.380    -386.907
  H        7.049    -896.750    -391.048
  H        3.584    -899.120    -384.422
  H        6.029    -899.520    -387.837
  H        4.249    -898.420    -389.128
  H        0.960    -898.200    -388.150
  H        1.973    -895.930    -386.736
  H        3.301    -895.230    -388.624
  H        0.912    -896.040    -390.380
  H        2.609    -896.450    -392.093
  H        2.677    -894.750    -391.573
  P        2.677    -892.800    -389.270
  C        1.712    -892.660    -391.693
  O        2.835    -892.800    -390.863
  O        4.059    -893.390    -388.700
  O        2.252    -891.490    -388.652
  H        4.109    -894.370    -388.796
  H        0.964    -892.000    -391.260
  H        1.265    -893.650    -391.880
  H        2.042    -892.240    -392.645
  H        5.901    -892.557    -392.841
  H        7.070    -893.663    -392.160
  H        5.654    -893.215    -391.241

 3  4  5  6  7  8  9  10  11  12  13  23  28  29  30  31  32 0
 6-311+G(2d,p)
 ****
 33  34 0
 6-311+G(2d,p)
 ****
 1  2  14  15  16  17  18  19  20  21  22  24  25  26 0
 3-21G
 ****
 27  35  36  37  38  39  40  41  42  43  44  45 0
 3-21G
 ****


