%nproc=1
%NoSave
%Mem=1900MB
#P OB98/GEN NMR

erre ene a

0 1
  C       -7.852    -799.774    1036.003
  O       -9.140    -799.874    1035.426
  H       -7.376    -800.760    1035.977
  H       -7.933    -799.454    1037.048
  H       -7.231    -799.067    1035.445
  P       -9.943    -798.503    1035.214
  C       -8.692    -797.430    1033.163
  O       -8.917    -797.441    1034.573
  C       -8.863    -796.010    1032.622
  O      -10.233    -795.584    1032.691
  C       -8.112    -794.959    1033.412
  O       -6.713    -795.025    1033.227
  C       -8.742    -793.691    1032.854
  O       -8.194    -793.350    1031.578
  C      -10.227    -794.136    1032.709
  N      -11.070    -793.593    1033.765
  C      -11.666    -792.357    1033.497
  O      -11.470    -791.791    1032.421
  N      -12.440    -791.775    1034.467
  C      -12.629    -792.387    1035.595
  N      -13.401    -791.755    1036.524
  C      -12.042    -793.710    1035.910
  C      -11.284    -794.247    1034.954
  O      -10.119    -797.964    1036.710
  O      -11.217    -798.623    1034.449
  H       -8.365    -794.098    1030.987
  H       -9.283    -797.904    1037.200
  H      -12.252    -794.189    1036.856
  H      -10.814    -795.211    1035.108
  H      -10.637    -793.808    1031.748
  H       -8.594    -792.826    1033.508
  H       -8.359    -795.026    1034.481
  H       -8.560    -796.025    1031.559
  H      -13.764    -790.845    1036.287
  H       -9.365    -798.130    1032.654
  H      -13.594    -792.123    1037.447
  H       -7.666    -797.785    1032.990
  P       -5.733    -794.143    1034.140
  C       -5.351    -795.985    1035.891
  O       -5.885    -794.686    1035.639
  O       -5.877    -792.667    1033.988
  O       -4.283    -794.688    1033.734
  H       -4.133    -795.639    1033.897
  H       -5.508    -796.242    1036.918
  H       -4.302    -795.987    1035.679
  H       -5.842    -796.700    1035.265

 6  7  8  9  10  11  12  13  14  15  16  26  30  31  32  33  35 0
 6-311+G(2d,p)
 ****
 37  38 0
 6-311+G(2d,p)
 ****
 1  2  3  4  5  17  18  19  20  21  22  23  24  25 0
 3-21G
 ****
 27  28  29  34  36  39  40  41  42  43  44  45  46 0
 3-21G
 ****


