%nproc=1
%NoSave
%Mem=1900MB
#P OB98/GEN NMR

erre ene a

0 1
  C     -138.451     -20.030     -95.391
  O     -137.642     -19.342     -96.335
  P     -136.839     -18.046     -95.823
  C     -137.526     -15.589     -95.326
  O     -137.873     -16.824     -95.945
  C     -138.608     -14.543     -95.572
  O     -138.654     -14.193     -96.971
  C     -140.017     -14.996     -95.217
  O     -140.287     -14.871     -93.830
  C     -140.848     -14.000     -96.010
  O     -140.907     -12.742     -95.309
  C     -140.026     -13.850     -97.297
  N     -142.618     -13.973    -101.705
  C     -142.386     -12.975    -100.826
  N     -141.695     -13.023     -99.668
  C     -141.251     -14.271     -99.431
  C     -141.444     -15.396    -100.218
  C     -142.155     -15.213    -101.413
  N     -142.365     -16.226    -102.325
  N     -140.841     -16.496     -99.647
  C     -140.287     -16.044     -98.542
  N     -140.498     -14.705     -98.370
  O     -135.803     -17.773     -97.012
  O     -136.158     -18.204     -94.506
  H     -141.416     -12.897     -94.490
  H     -135.038     -17.264     -96.679
  H     -142.803     -12.008    -101.092
  H     -139.720     -16.644     -97.843
  H     -140.023     -12.821     -97.671
  H     -141.880     -14.331     -96.159
  H     -140.213     -16.011     -95.584
  H     -138.340     -13.640     -95.008
  H     -136.581     -15.232     -95.747
  H     -142.719     -15.976    -103.237
  H     -141.852     -17.090    -102.204
  H     -137.391     -15.754     -94.251
  P     -141.200     -16.014     -93.164
  C     -143.585     -16.894     -93.708
  O     -142.645     -15.842     -93.832
  O     -141.400     -15.492     -91.665
  O     -140.603     -17.381     -93.217
  H     -141.576     -16.240     -91.064
  H     -144.580     -16.501     -93.931
  H     -143.590     -17.300     -92.691
  H     -143.349     -17.689     -94.421
  H     -138.922     -20.865     -95.866
  H     -139.200     -19.366     -95.012
  H     -137.840     -20.377     -94.584

 3  4  5  6  7  8  9  10  11  12  22  25  29  30  31  32 0
 6-311+G(2d,p)
 ****
 33  36  37 0
 6-311+G(2d,p)
 ****
 1  2  13  14  15  16  17  18  19  20  21  23  24  26 0
 3-21G
 ****
 27  28  34  35  38  39  40  41  42  43  44  45  46  47  48 0
 3-21G
 ****


