%nproc=1
%NoSave
%Mem=1900MB
#P OB98/GEN NMR

erre ene a

0 1
  C     -430.424       5.108     179.024
  O     -429.091       5.313     179.479
  P     -427.948       5.510     178.375
  C     -426.610       7.477     179.402
  O     -426.658       6.075     179.149
  C     -425.224       7.891     179.884
  O     -424.916       7.166     181.109
  C     -424.092       7.612     178.889
  O     -423.206       8.740     178.844
  C     -423.333       6.456     179.525
  O     -421.975       6.413     179.100
  C     -423.533       6.775     181.006
  N     -420.096       4.915     184.209
  C     -420.194       6.180     183.653
  N     -419.201       7.045     183.951
  N     -421.171       6.551     182.870
  C     -422.108       5.592     182.686
  C     -422.129       4.313     183.191
  C     -421.010       3.892     184.006
  O     -420.821       2.761     184.449
  N     -423.261       3.636     182.791
  C     -423.919       4.505     182.047
  N     -423.237       5.688     181.913
  O     -428.473       6.769     177.539
  O     -427.707       4.337     177.484
  H     -421.970       6.109     178.174
  H     -428.541       6.539     176.588
  H     -419.311       4.676     184.789
  H     -424.868       4.315     181.564
  H     -422.911       7.633     181.297
  H     -423.818       5.514     179.244
  H     -418.434       6.834     184.573
  H     -424.436       7.374     177.872
  H     -419.264       7.983     183.572
  H     -425.252       8.956     180.149
  H     -427.354       7.727     180.170
  H     -426.863       8.010     178.476
  P     -422.830       9.288     177.378
  C     -422.981      11.716     178.311
  O     -422.225      10.753     177.599
  O     -424.262       9.563     176.709
  O     -421.996       8.340     176.573
  H     -424.196       9.521     175.739
  H     -423.874      11.277     178.780
  H     -423.301      12.496     177.619
  H     -422.353      12.160     179.087
  H     -431.074       4.993     179.866
  H     -430.463       4.226     178.420
  H     -430.737       5.951     178.444

 3  4  5  6  7  8  9  10  11  12  23  26  30  31  33  0
 6-311+G(2d,p)
 ****
 35  36  37  38 0
 6-311+G(2d,p)
 ****
 1  2  13  14  15  16  17  18  19  20  21  22  24  25  27  28  29 0
 3-21G
 ****
 32  34  39  40  41  42  43  44  45  46  47  48  49 0
 3-21G
 ****


