%nproc=1
%NoSave
%Mem=1900MB
#P OB98/GEN NMR

erre ene a

0 1
  C     -397.909    -169.162     316.282
  O     -396.781    -168.324     316.101
  P     -396.871    -167.064     315.116
  C     -394.769    -167.889     313.821
  O     -395.401    -166.837     314.515
  C     -393.437    -167.429     313.209
  O     -393.715    -166.310     312.332
  C     -392.411    -166.926     314.218
  O     -391.123    -166.933     313.599
  C     -392.862    -165.495     314.432
  O     -391.828    -164.677     314.970
  C     -393.366    -165.091     313.024
  N     -394.535    -164.196     313.106
  C     -394.282    -162.845     313.324
  O     -393.142    -162.376     313.370
  N     -395.373    -162.060     313.571
  C     -396.659    -162.509     313.663
  O     -397.569    -161.871     314.181
  C     -396.890    -163.881     313.191
  C     -395.829    -164.663     312.961
  O     -397.062    -165.841     316.128
  O     -397.964    -167.128     314.108
  H     -392.228    -163.791     315.141
  H     -398.009    -165.614     316.211
  H     -395.178    -161.112     313.868
  H     -397.910    -164.231     313.107
  H     -395.970    -165.697     312.664
  H     -392.583    -164.573     312.456
  H     -393.697    -165.489     315.147
  H     -392.384    -167.490     315.152
  H     -393.017    -168.238     312.603
  H     -395.444    -168.263     313.041
  H     -394.580    -168.730     314.497
  P     -389.920    -167.673     314.365
  C     -388.809    -165.392     314.758
  O     -388.653    -166.706     314.255
  O     -389.685    -169.096     313.987
  O     -390.340    -167.533     315.908
  H     -389.854    -168.185     316.442
  H     -387.839    -165.029     315.105
  H     -389.518    -165.365     315.590
  H     -389.166    -164.741     313.954
  H     -397.665    -169.945     316.969
  H     -398.192    -169.588     315.342
  H     -398.722    -168.586     316.672

 3  4  5  6  7  8  9  10  11  12  13  23  28  29  30  31  32 0
 6-311+G(2d,p)
 ****
 33  34 0
 6-311+G(2d,p)
 ****
 1  2  14  15  16  17  18  19  20  21  22  24  25  26  27 0
 3-21G
 ****
 35  36  37  38  39  40  41  42  43  44  45 0
 3-21G
 ****


