%nproc=1
%NoSave
%Mem=1900MB
#P OB98/GEN NMR

erre ene a

0 1
  C      516.154     396.615     553.082
  O      515.165     397.206     552.230
  P      513.905     398.026     552.802
  C      512.427     396.037     553.509
  O      512.582     397.140     552.626
  C      511.365     395.048     553.002
  O      510.061     395.667     553.023
  C      511.567     394.568     551.579
  O      512.602     393.604     551.505
  C      510.174     394.046     551.245
  O      509.989     392.711     551.750
  C      509.269     395.046     551.987
  N      508.687     396.041     551.095
  C      507.375     395.801     550.672
  O      506.786     394.771     550.997
  N      506.768     396.736     549.860
  C      507.441     397.769     549.452
  N      506.785     398.654     548.656
  C      508.852     398.006     549.804
  C      509.402     397.114     550.620
  O      513.793     399.413     552.255
  O      514.121     398.066     554.389
  H      510.394     392.690     552.638
  H      513.736     398.894     554.741
  H      509.379     398.864     549.419
  H      510.436     397.218     550.937
  H      508.455     394.517     552.500
  H      509.984     394.005     550.167
  H      511.800     395.425     550.929
  H      511.342     394.200     553.700
  H      505.814     398.467     548.437
  H      512.128     396.418     554.491
  H      507.216     399.493     548.288
  H      513.391     395.529     553.610
  P      514.127     394.075     551.399
  C      514.301     392.550     549.340
  O      514.914     392.974     550.545
  O      514.776     394.467     552.686
  O      514.066     395.322     550.390
  H      514.768     395.960     550.626
  H      515.073     392.141     548.679
  H      513.801     393.379     548.833
  H      513.573     391.766     549.568
  H      516.893     396.124     552.484
  H      515.687     395.902     553.729
  H      516.621     397.378     553.669

 3  4  5  6  7  8  9  10  11  12  13  23  27  28  29  30  32 0
 6-311+G(2d,p)
 ****
 34  35 0
 6-311+G(2d,p)
 ****
 1  2  14  15  16  17  18  19  20  21  22  24  25  26 0
 3-21G
 ****
 31  33  36  37  38  39  40  41  42  43  44  45  46 0
 3-21G
 ****


