%nproc=1
%NoSave
%Mem=1900MB
#P OB98/GEN NMR

erre ene a

0 1
  C      282.174     420.241    -134.010
  O      282.672     420.281    -135.336
  H      283.019     420.153    -133.322
  H      281.521     419.369    -133.886
  H      281.622     421.159    -133.781
  P      281.613     420.582    -136.499
  C      281.278     418.034    -137.056
  O      280.694     419.268    -136.662
  C      280.383     416.871    -136.639
  O      280.434     416.656    -135.213
  C      278.908     417.100    -136.917
  O      278.594     417.048    -138.286
  C      278.288     415.975    -136.092
  O      278.381     414.726    -136.789
  C      279.203     415.978    -134.840
  N      278.567     416.605    -133.689
  C      277.553     415.860    -133.065
  O      277.258     414.743    -133.502
  N      276.888     416.408    -132.002
  C      277.221     417.588    -131.575
  N      276.520     418.087    -130.520
  C      278.296     418.399    -132.177
  C      278.918     417.850    -133.222
  O      282.517     420.544    -137.817
  O      280.815     421.837    -136.330
  H      277.837     414.090    -136.285
  H      283.040     419.724    -137.907
  H      278.546     419.376    -131.779
  H      279.721     418.382    -133.721
  H      279.478     414.953    -134.563
  H      277.229     416.150    -135.888
  H      278.581     418.056    -136.472
  H      280.746     415.963    -137.131
  H      275.773     417.510    -130.147
  H      282.280     417.923    -136.627
  H      276.664     419.003    -130.126
  H      281.389     418.050    -138.146
  P      277.356     417.884    -138.876
  C      275.599     416.025    -138.568
  O      276.034     417.305    -138.150
  O      277.268     417.937    -140.357
  O      277.520     419.325    -138.181
  H      277.494     419.316    -137.205
  H      274.722     415.750    -138.020
  H      276.372     415.308    -138.386
  H      275.374     416.049    -139.614

 6  7  8  9  10  11  12  13  14  15  16  26  30  31  32  33  35 0
 6-311+G(2d,p)
 ****
 37  38 0
 6-311+G(2d,p)
 ****
 1  2  3  4  5  17  18  19  20  21  22  23  24  25 0
 3-21G
 ****
 27  28  29  34  36  39  40  41  42  43  44  45  46 0
 3-21G
 ****


