%nproc=1
%NoSave
%Mem=1900MB
#P OB98/GEN NMR

erre ene a

0 1
  C       46.386    -954.143    -156.884
  O       46.218    -953.679    -158.208
  H       47.239    -954.822    -156.854
  H       45.492    -954.691    -156.568
  H       46.575    -953.307    -156.205
  P       45.065    -952.594    -158.457
  C       45.855    -950.904    -156.650
  O       44.852    -951.827    -157.055
  C       45.225    -949.655    -156.036
  O       44.351    -950.057    -154.938
  C       46.241    -948.648    -155.469
  O       45.718    -947.328    -155.686
  C       46.203    -948.922    -153.975
  O       46.671    -947.820    -153.202
  C       44.720    -949.244    -153.798
  N       44.202    -948.547    -148.838
  C       44.407    -947.639    -149.850
  N       44.500    -946.337    -149.493
  N       44.531    -947.975    -151.115
  C       44.390    -949.309    -151.334
  C       44.181    -950.311    -150.413
  C       44.080    -949.926    -149.021
  O       43.908    -950.696    -148.071
  N       44.126    -951.542    -151.031
  C       44.288    -951.276    -152.318
  N       44.455    -949.935    -152.547
  O       43.753    -953.504    -158.594
  O       45.265    -951.708    -159.642
  H       47.622    -947.703    -153.397
  H       43.577    -953.703    -159.536
  H       44.137    -948.245    -147.886
  H       44.298    -952.008    -153.111
  H       44.097    -948.343    -153.809
  H       46.824    -949.808    -153.740
  H       44.377    -945.999    -148.553
  H       47.243    -948.721    -155.905
  H       44.609    -945.646    -150.232
  H       44.585    -949.181    -156.794
  H       46.452    -950.617    -157.523
  H       46.507    -951.388    -155.917
  P       46.597    -946.303    -156.566
  C       45.030    -946.434    -158.642
  O       46.340    -946.632    -158.111
  O       48.100    -946.834    -156.339
  O       46.457    -944.873    -156.163
  H       48.723    -946.102    -156.433
  H       45.022    -946.697    -159.679
  H       44.752    -945.407    -158.532
  H       44.334    -947.050    -158.113

 6  7  8  9  10  11  12  13  14  15  26  29  33  34 0
 6-311+G(2d,p)
 ****
 36  38  39  40  41 0
 6-311+G(2d,p)
 ****
 1  2  3  4  5  16  17  18  19  20  21  22  23  24  25 0
 3-21G
 ****
 27  28  30  31  32  35  37  42  43  44  45  46  47 0
 3-21G
 ****
 48  49 0
 3-21G
 ****


