%nproc=1
%NoSave
%Mem=1900MB
#P OB98/GEN NMR

erre ene a

0 1
  C      242.053     818.086     -59.977
  O      242.126     817.441     -61.229
  H      242.218     817.343     -59.191
  H      241.059     818.521     -59.845
  H      242.812     818.869     -59.885
  P      242.376     818.326     -62.537
  C      241.027     816.668     -63.987
  O      242.255     817.369     -63.821
  C      241.062     815.740     -65.201
  O      241.435     816.494     -66.374
  C      242.094     814.617     -65.051
  O      241.613     813.463     -64.382
  C      242.439     814.306     -66.503
  O      241.540     813.329     -67.054
  C      242.256     815.657     -67.209
  N      246.313     816.025     -70.297
  C      245.320     815.065     -70.280
  N      245.455     814.058     -71.173
  N      244.312     815.084     -69.452
  C      244.367     816.092     -68.550
  C      245.313     817.096     -68.457
  C      246.383     817.102     -69.430
  O      247.275     817.943     -69.493
  N      245.059     817.923     -67.393
  C      244.026     817.372     -66.789
  N      243.517     816.305     -67.505
  O      243.952     818.637     -62.482
  O      241.592     819.604     -62.612
  H      241.692     813.281     -68.015
  H      244.130     819.504     -62.885
  H      247.050     815.969     -70.976
  H      243.571     817.725     -65.872
  H      241.724     815.540     -68.162
  H      243.441     813.894     -66.586
  H      246.260     813.944     -71.777
  H      243.000     814.983     -64.553
  H      244.856     813.234     -71.069
  H      240.057     815.341     -65.380
  H      240.254     817.428     -64.116
  H      240.786     816.106     -63.079
  P      241.977     813.177     -62.855
  C      241.696     810.564     -62.868
  O      241.260     811.828     -62.405
  O      241.165     814.309     -62.070
  O      243.434     813.211     -62.529
  H      241.742     815.059     -61.844
  H      241.080     809.798     -62.446
  H      242.713     810.407     -62.573
  H      241.625     810.531     -63.935

 6  7  8  9  10  11  12  13  14  15  26  29  33  34 0
 6-311+G(2d,p)
 ****
 36  38  39  40  41 0
 6-311+G(2d,p)
 ****
 1  2  3  4  5  16  17  18  19  20  21  22  23  24  25 0
 3-21G
 ****
 27  28  30  31  32  35  37  42  43  44  45  46  47 0
 3-21G
 ****
 48  49 0
 3-21G
 ****


