%nproc=1
%NoSave
%Mem=1900MB
#P OB98/GEN NMR

erre ene a

0 1
  C      144.874      81.119    -125.588
  O      144.619      81.251    -124.205
  P      145.199      82.448    -123.316
  C      143.145      83.284    -121.961
  O      144.014      83.507    -123.064
  C      141.894      84.173    -121.992
  O      141.047      83.772    -123.089
  C      141.069      83.970    -120.715
  O      141.399      84.676    -119.536
  C      139.616      84.105    -121.156
  O      139.084      85.406    -120.900
  C      139.677      83.837    -122.662
  N      135.255      81.685    -123.905
  C      135.579      83.027    -123.833
  N      134.545      83.893    -123.917
  N      136.800      83.470    -123.670
  C      137.713      82.483    -123.502
  C      137.515      81.122    -123.570
  C      136.168      80.648    -123.794
  O      135.825      79.467    -123.781
  N      138.660      80.423    -123.281
  C      139.545      81.359    -123.000
  N      139.006      82.623    -123.082
  O      146.554      82.961    -123.683
  O      145.326      81.735    -121.873
  H      138.208      85.461    -121.327
  H      146.107      82.115    -121.427
  H      134.283      81.404    -123.957
  H      140.571      81.175    -122.699
  H      139.217      84.665    -123.220
  H      138.977      83.397    -120.613
  H      133.583      83.587    -123.898
  H      141.179      82.915    -120.432
  H      134.720      84.869    -123.699
  H      142.156      85.219    -122.185
  H      143.724      83.462    -121.048
  H      142.838      82.233    -121.944
  P      142.211      84.100    -118.281
  C      144.097      85.787    -118.671
  O      143.767      84.418    -118.494
  O      142.144      82.510    -118.462
  O      141.664      84.494    -116.946
  H      142.289      82.073    -117.602
  H      145.099      85.858    -119.102
  H      144.089      86.292    -117.698
  H      143.383      86.279    -119.342
  H      144.381      80.245    -125.960
  H      145.928      81.030    -125.749
  H      144.506      81.982    -126.103

 3  4  5  6  7  8  9  10  11  12  23  26  30  31 0
 6-311+G(2d,p)
 ****
 33  35  36  37  38 0
 6-311+G(2d,p)
 ****
 1  2  13  14  15  16  17  18  19  20  21  22  24  25 0
 3-21G
 ****
 27  28  29  32  34  39  40  41  42  43  44  45  46  47  48  49 0
 3-21G
 ****


