%nproc=1
%NoSave
%Mem=1900MB
#P OB98/GEN NMR

erre ene a

0 1
  C      333.294     160.964    -393.079
  O      333.168     160.724    -394.465
  H      332.936     160.086    -392.535
  H      332.684     161.827    -392.793
  H      334.341     161.142    -392.814
  P      333.806     161.822    -395.450
  C      334.857     161.693    -397.852
  O      334.253     161.017    -396.764
  C      335.588     160.701    -398.763
  O      336.825     160.303    -398.118
  C      334.785     159.433    -399.059
  O      335.071     159.020    -400.397
  C      335.365     158.417    -398.088
  O      335.154     157.077    -398.523
  C      336.833     158.862    -398.030
  N      337.509     158.401    -396.818
  C      337.603     157.016    -396.641
  O      337.120     156.248    -397.475
  N      338.204     156.532    -395.506
  C      338.615     157.358    -394.595
  N      339.179     156.813    -393.480
  C      338.499     158.823    -394.719
  C      337.951     159.271    -395.847
  O      335.189     162.154    -394.716
  O      332.937     163.011    -395.695
  H      335.682     156.924    -399.337
  H      335.661     161.364    -394.403
  H      338.847     159.469    -393.926
  H      337.832     160.335    -396.027
  H      337.388     158.480    -398.898
  H      334.894     158.528    -397.102
  H      333.709     159.572    -398.935
  H      335.865     161.218    -399.689
  H      339.220     155.802    -393.428
  H      335.567     162.442    -397.492
  H      339.483     157.354    -392.687
  H      334.070     162.210    -398.410
  P      333.900     159.023    -401.489
  C      333.798     159.544    -404.022
  O      334.543     158.960    -402.957
  O      332.842     160.058    -401.300
  O      333.269     157.550    -401.333
  H      332.297     157.635    -401.397
  H      334.339     159.432    -404.939
  H      333.646     160.584    -403.822
  H      332.850     159.054    -404.105

 6  7  8  9  10  11  12  13  14  15  16  26  30  31  32  33  35 0
 6-311+G(2d,p)
 ****
 37  38 0
 6-311+G(2d,p)
 ****
 1  2  3  4  5  17  18  19  20  21  22  23  24  25 0
 3-21G
 ****
 27  28  29  34  36  39  40  41  42  43  44  45  46 0
 3-21G
 ****


