%nproc=1
%NoSave
%Mem=1900MB
#P OB98/GEN NMR

erre ene a

0 1
  C     -509.299      28.345    -628.140
  O     -509.745      27.063    -627.716
  P     -511.290      26.789    -627.367
  C     -512.516      26.400    -625.123
  O     -511.409      26.987    -625.778
  C     -512.198      26.126    -623.646
  O     -511.238      25.038    -623.580
  C     -511.573      27.328    -622.904
  O     -512.044      27.287    -621.569
  C     -510.089      27.033    -622.962
  O     -509.357      27.717    -621.951
  C     -510.090      25.514    -622.832
  N     -508.863      24.898    -623.324
  C     -507.821      24.717    -622.411
  O     -507.933      25.091    -621.234
  N     -506.660      24.132    -622.839
  C     -506.520      23.809    -624.096
  N     -505.367      23.166    -624.461
  C     -507.553      24.077    -625.110
  C     -508.688      24.598    -624.659
  O     -511.826      25.497    -627.882
  O     -512.057      28.083    -627.924
  H     -509.272      28.655    -622.212
  H     -512.284      28.012    -628.885
  H     -507.374      23.831    -626.146
  H     -509.513      24.811    -625.328
  H     -510.264      25.219    -621.784
  H     -509.684      27.359    -623.940
  H     -511.855      28.295    -623.360
  H     -513.111      25.805    -623.147
  H     -504.774      22.850    -623.707
  H     -512.751      25.446    -625.609
  H     -505.325      22.615    -625.317
  H     -513.398      27.046    -625.219
  P     -511.616      28.481    -620.556
  C     -510.123      28.714    -618.450
  O     -510.674      27.853    -619.432
  O     -512.990      28.726    -619.747
  O     -511.169      29.757    -621.195
  H     -512.993      29.644    -619.428
  H     -509.509      28.118    -617.770
  H     -510.906      29.207    -617.878
  H     -509.478      29.471    -618.933
  H     -508.245      28.314    -628.320
  H     -509.510      29.066    -627.378
  H     -509.807      28.619    -629.041

 3  4  5  6  7  8  9  10  11  12  13  23  27  28  29  30  32 0
 6-311+G(2d,p)
 ****
 34  35 0
 6-311+G(2d,p)
 ****
 1  2  14  15  16  17  18  19  20  21  22  24  25  26 0
 3-21G
 ****
 31  33  36  37  38  39  40  41  42  43  44  45  46 0
 3-21G
 ****


