%nproc=1
%NoSave
%Mem=1900MB
#P OB98/GEN NMR

erre ene a

0 1
  C      -21.091     -26.065      10.560
  O      -20.499     -26.889      11.555
  P      -21.385     -27.250      12.846
  C      -21.226     -29.839      12.717
  O      -20.815     -28.650      13.382
  C      -20.043     -30.781      12.522
  O      -19.052     -30.166      11.675
  C      -19.313     -31.154      13.803
  O      -19.962     -32.201      14.505
  C      -17.982     -31.634      13.248
  O      -18.118     -32.977      12.748
  C      -17.750     -30.660      12.088
  N      -13.155     -29.320      13.884
  C      -13.735     -30.525      13.708
  N      -14.968     -30.799      13.234
  C      -15.636     -29.666      12.964
  C      -15.188     -28.366      13.129
  C      -13.876     -28.207      13.603
  N      -13.276     -26.978      13.754
  N      -16.158     -27.466      12.747
  C      -17.170     -28.206      12.349
  N      -16.900     -29.542      12.451
  O      -22.800     -27.646      12.211
  O      -21.506     -26.159      13.853
  H      -18.786     -32.949      12.037
  H      -23.507     -27.532      12.874
  H      -13.125     -31.384      13.974
  H      -18.108     -27.821      11.972
  H      -17.298     -31.148      11.218
  H      -17.189     -31.651      14.001
  H      -19.149     -30.274      14.438
  H      -20.409     -31.682      12.011
  H      -21.639     -29.576      11.739
  H      -12.282     -26.956      13.920
  H      -13.741     -26.170      13.356
  H      -22.009     -30.326      13.308
  P      -20.085     -32.037      16.098
  C      -22.546     -32.760      16.509
  O      -21.178     -33.115      16.552
  O      -20.832     -30.632      16.262
  O      -18.778     -32.073      16.817
  H      -20.620     -30.231      17.126
  H      -23.147     -33.672      16.543
  H      -22.785     -32.218      15.589
  H      -22.795     -32.141      17.375
  H      -20.392     -25.908       9.765
  H      -21.359     -25.123      10.990
  H      -21.967     -26.544      10.176

 3  4  5  6  7  8  9  10  11  12  22  25  29  30  31  32 0
 6-311+G(2d,p)
 ****
 33  36  37 0
 6-311+G(2d,p)
 ****
 1  2  13  14  15  16  17  18  19  20  21  23  24  26 0
 3-21G
 ****
 27  28  34  35  38  39  40  41  42  43  44  45  46  47  48 0
 3-21G
 ****


