%nproc=1
%NoSave
%Mem=1900MB
#P OB98/GEN NMR

erre ene a

0 1
  C       55.743     838.231    -284.370
  O       56.910     838.079    -285.175
  P       57.993     836.942    -284.808
  C       57.734     835.583    -286.995
  O       57.608     835.594    -285.578
  C       58.911     834.687    -287.415
  O       58.633     833.284    -287.122
  C       59.177     834.716    -288.925
  O       59.701     835.921    -289.434
  C       59.973     833.448    -289.129
  O       61.363     833.656    -288.840
  C       59.335     832.499    -288.105
  N       58.444     831.509    -288.734
  C       59.044     830.550    -289.534
  O       60.247     830.522    -289.758
  N       58.199     829.631    -290.097
  C       56.827     829.600    -289.972
  O       56.120     828.773    -290.526
  C       56.250     830.661    -289.138
  C       57.057     831.557    -288.570
  O       58.302     836.801    -283.354
  O       59.298     837.435    -285.611
  H       61.818     832.797    -288.905
  H       60.078     837.297    -285.027
  H       58.611     828.918    -290.675
  H       55.171     830.689    -289.026
  H       56.650     832.355    -287.946
  H       60.103     831.928    -287.561
  H       59.921     833.108    -290.175
  H       58.207     834.582    -289.430
  H       59.801     834.968    -286.847
  H       57.888     836.602    -287.363
  H       56.797     835.240    -287.433
  P       59.299     836.519    -290.873
  C       58.056     838.723    -290.304
  O       57.949     837.375    -290.700
  O       59.360     835.590    -292.051
  O       60.393     837.668    -291.063
  H       60.599     837.745    -292.029
  H       57.043     839.143    -290.211
  H       58.624     839.302    -291.025
  H       58.533     838.791    -289.318
  H       55.143     839.027    -284.759
  H       56.030     838.459    -283.365
  H       55.180     837.321    -284.382

 3  4  5  6  7  8  9  10  11  12  13  23  28  29  30  31  32 0
 6-311+G(2d,p)
 ****
 33  34 0
 6-311+G(2d,p)
 ****
 1  2  14  15  16  17  18  19  20  21  22  24  25  26  27 0
 3-21G
 ****
 35  36  37  38  39  40  41  42  43  44  45 0
 3-21G
 ****


