%nproc=1
%NoSave
%Mem=1900MB
#P OB98/GEN NMR

erre ene a

0 1
  C      243.424    -212.437     -20.926
  O      243.190    -213.622     -21.661
  H      244.475    -212.156     -21.041
  H      243.216    -212.588     -19.865
  H      242.801    -211.627     -21.316
  P      241.801    -214.392     -21.431
  C      243.172    -216.367     -20.495
  O      242.177    -215.956     -21.428
  C      243.902    -217.620     -20.977
  O      243.042    -218.776     -20.886
  C      244.331    -217.568     -22.435
  O      245.330    -216.617     -22.723
  C      244.592    -219.035     -22.736
  O      245.885    -219.458     -22.309
  C      243.500    -219.725     -21.879
  N      242.398    -220.231     -22.686
  C      242.741    -221.132     -23.687
  O      243.900    -221.483     -23.918
  N      241.705    -221.598     -24.451
  C      240.398    -221.225     -24.340
  O      239.517    -221.665     -25.071
  C      240.100    -220.239     -23.287
  C      241.099    -219.794     -22.522
  O      240.698    -214.035     -22.384
  O      241.452    -214.102     -19.899
  H      245.911    -220.431     -22.395
  H      240.504    -214.314     -19.703
  H      241.931    -222.266     -25.173
  H      239.077    -219.913     -23.180
  H      240.904    -219.071     -21.735
  H      243.930    -220.570     -21.325
  H      244.514    -219.260     -23.803
  H      243.460    -217.280     -23.037
  H      244.758    -217.792     -20.313
  H      242.671    -216.585     -19.545
  H      243.887    -215.550     -20.339
  P      245.254    -215.593     -23.940
  C      247.228    -216.601     -25.329
  O      246.707    -215.490     -24.610
  O      244.492    -214.328     -23.710
  O      244.439    -216.454     -25.039
  H      243.890    -215.827     -25.550
  H      248.200    -216.359     -25.705
  H      246.578    -216.834     -26.146
  H      247.298    -217.447     -24.677

 6  7  8  9  10  11  12  13  14  15  16  26  31  32  33  34  35 0
 6-311+G(2d,p)
 ****
 36  37 0
 6-311+G(2d,p)
 ****
 1  2  3  4  5  17  18  19  20  21  22  23  24  25 0
 3-21G
 ****
 27  28  29  30  38  39  40  41  42  43  44  45 0
 3-21G
 ****


