%nproc=1
%NoSave
%Mem=1900MB
#P OB98/GEN NMR

erre ene a

0 1
  C      154.575    -309.244     289.022
  O      153.255    -309.043     289.493
  H      155.117    -309.860     289.746
  H      155.087    -308.283     288.922
  H      154.557    -309.757     288.060
  P      152.278    -308.187     288.548
  C      150.095    -309.297     289.430
  O      150.870    -308.116     289.315
  C      149.066    -309.152     290.565
  O      149.779    -309.076     291.835
  C      148.207    -307.875     290.457
  O      146.919    -308.137     291.043
  C      148.970    -306.908     291.347
  O      148.167    -305.806     291.686
  C      149.360    -307.852     292.481
  N      150.653    -304.042     295.617
  C      149.494    -304.343     294.995
  N      149.224    -305.381     294.177
  C      150.305    -306.176     294.056
  C      151.549    -306.004     294.629
  C      151.716    -304.866     295.439
  N      152.901    -304.548     296.067
  N      152.410    -307.019     294.244
  C      151.682    -307.800     293.461
  N      150.410    -307.326     293.321
  O      151.999    -309.176     287.322
  O      152.811    -306.867     288.093
  H      148.124    -305.161     290.946
  H      152.639    -309.012     286.604
  H      148.667    -303.646     295.167
  H      152.037    -308.699     292.965
  H      148.502    -308.090     293.127
  H      149.857    -306.519     290.833
  H      148.076    -307.525     289.426
  H      148.439    -310.054     290.610
  H      150.766    -310.139     289.648
  H      149.568    -309.487     288.487
  H      152.935    -303.704     296.607
  H      153.708    -305.136     295.917
  P      145.596    -307.984     290.128
  C      144.185    -309.864     291.265
  O      144.298    -308.489     290.936
  O      145.804    -309.154     289.052
  O      145.439    -306.667     289.442
  H      145.611    -308.813     288.154
  H      143.271    -310.030     291.797
  H      145.012    -310.153     291.879
  H      144.186    -310.447     290.368

 6  7  8  9  10  11  12  13  14  15  25  28  32  33  34  35 0
 6-311+G(2d,p)
 ****
 36  37  40 0
 6-311+G(2d,p)
 ****
 1  2  3  4  5  16  17  18  19  20  21  22  23  24 0
 3-21G
 ****
 26  27  29  30  31  38  39 41  42  43  44  45  46  47  48 0
 3-21G
 ****


