%nproc=1
%NoSave
%Mem=1900MB
#P OB98/GEN NMR

erre ene a

0 1
  C      680.450     661.058      53.549
  O      679.596     660.234      54.346
  P      680.138     659.434      55.634
  C      678.313     660.231      57.271
  O      679.706     660.225      56.955
  C      678.079     660.158      58.789
  O      678.192     658.804      59.259
  C      679.067     660.981      59.617
  O      678.723     662.352      59.599
  C      678.932     660.298      60.980
  O      677.776     660.789      61.680
  C      678.747     658.831      60.602
  N      680.788     654.286      61.756
  C      679.509     654.744      61.782
  N      679.056     655.975      61.462
  C      680.057     656.758      61.060
  C      681.409     656.439      60.993
  C      681.762     655.136      61.369
  N      683.066     654.682      61.358
  N      682.143     657.524      60.561
  C      681.246     658.482      60.355
  N      679.977     658.061      60.641
  O      681.594     659.087      55.569
  O      679.242     658.105      55.698
  H      677.939     661.724      61.906
  H      679.750     657.382      56.117
  H      678.761     654.016      62.100
  H      681.486     659.474      60.000
  H      678.029     658.333      61.242
  H      679.802     660.485      61.629
  H      680.081     660.839      59.238
  H      677.053     660.483      58.976
  H      677.856     659.362      56.799
  H      683.240     653.736      61.664
  H      683.803     655.316      61.115
  H      677.870     661.136      56.871
  P      679.828     663.458      59.247
  C      678.964     663.903      56.870
  O      680.040     663.422      57.653
  O      681.084     663.391      60.056
  O      679.056     664.840      59.465
  H      679.707     665.527      59.733
  H      678.202     663.117      56.779
  H      679.348     664.143      55.871
  H      678.522     664.799      57.311
  H      679.884     661.491      52.750
  H      681.242     660.464      53.144
  H      680.863     661.836      54.156

 3  4  5  6  7  8  9  10  11  12  22  25  29  30  31  32 0
 6-311+G(2d,p)
 ****
 33  36  37 0
 6-311+G(2d,p)
 ****
 1  2  13  14  15  16  17  18  19  20  21  23  24  26 0
 3-21G
 ****
 27  28  34  35  38  39  40  41  42  43  44  45  46  47  48 0
 3-21G
 ****


