%nproc=1
%NoSave
%Mem=1900MB
#P OB98/GEN NMR

erre ene a

0 1
  C     -220.622    -123.311    -222.041
  O     -219.242    -123.441    -221.689
  P     -218.758    -124.912    -221.269
  C     -219.118    -124.641    -218.715
  O     -219.517    -125.301    -219.908
  C     -219.759    -125.293    -217.484
  O     -219.196    -124.736    -216.257
  C     -221.282    -125.098    -217.408
  O     -221.819    -126.294    -216.825
  C     -221.409    -123.925    -216.451
  O     -222.714    -123.771    -215.920
  C     -220.312    -124.285    -215.455
  N     -221.310    -121.893    -211.060
  C     -221.881    -122.962    -211.658
  N     -221.559    -123.537    -212.835
  C     -220.524    -122.897    -213.402
  C     -219.839    -121.794    -212.919
  C     -220.271    -121.284    -211.681
  N     -219.709    -120.185    -211.074
  N     -218.843    -121.408    -213.803
  C     -218.985    -122.225    -214.833
  N     -219.925    -123.187    -214.599
  O     -217.240    -124.691    -220.812
  O     -218.882    -125.918    -222.364
  H     -222.737    -123.004    -215.314
  H     -216.628    -124.942    -221.528
  H     -222.713    -123.412    -211.119
  H     -218.435    -122.163    -215.760
  H     -220.604    -125.117    -214.799
  H     -221.158    -122.996    -216.981
  H     -221.752    -124.932    -218.382
  H     -219.517    -126.362    -217.495
  H     -219.409    -123.586    -218.755
  H     -220.091    -119.887    -210.192
  H     -218.941    -119.695    -211.509
  H     -218.023    -124.657    -218.646
  P     -222.906    -127.137    -217.650
  C     -224.952    -126.275    -216.364
  O     -224.242    -126.245    -217.586
  O     -223.249    -128.292    -216.590
  O     -222.476    -127.640    -218.986
  H     -223.451    -127.917    -215.715
  H     -225.787    -125.568    -216.423
  H     -224.296    -125.980    -215.538
  H     -225.350    -127.278    -216.184
  H     -220.829    -122.294    -222.301
  H     -221.231    -123.597    -221.209
  H     -220.838    -123.944    -222.876

 3  4  5  6  7  8  9  10  11  12  22  25  29  30  31  32 0
 6-311+G(2d,p)
 ****
 33  36  37 0
 6-311+G(2d,p)
 ****
 1  2  13  14  15  16  17  18  19  20  21  23  24  26 0
 3-21G
 ****
 27  28  34  35  38  39  40  41  42  43  44  45  46  47  48 0
 3-21G
 ****


