%nproc=1
%NoSave
%Mem=1900MB
#P OB98/GEN NMR

erre ene a

0 1
  C     -558.860     433.889    -213.209
  O     -559.130     434.467    -211.953
  H     -559.754     433.970    -213.836
  H     -558.612     432.828    -213.091
  H     -558.035     434.409    -213.703
  P     -557.922     434.483    -210.892
  C     -556.524     432.654    -209.671
  O     -557.497     432.950    -210.670
  C     -557.013     431.510    -208.796
  O     -558.174     431.942    -208.046
  C     -557.460     430.277    -209.567
  O     -556.356     429.488    -209.986
  C     -558.345     429.584    -208.539
  O     -557.576     428.802    -207.622
  C     -558.987     430.766    -207.805
  N     -563.780     429.037    -207.584
  C     -562.639     428.619    -206.987
  N     -561.401     429.151    -207.087
  C     -561.412     430.228    -207.890
  C     -562.490     430.767    -208.572
  C     -563.731     430.121    -208.390
  N     -564.882     430.520    -209.028
  N     -562.100     431.845    -209.338
  C     -560.806     431.963    -209.113
  N     -560.345     431.010    -208.247
  O     -558.653     434.875    -209.521
  O     -556.803     435.417    -211.217
  H     -557.069     428.161    -208.156
  H     -558.590     435.839    -209.379
  H     -562.734     427.745    -206.350
  H     -560.156     432.710    -209.558
  H     -559.022     430.617    -206.721
  H     -559.065     428.915    -209.021
  H     -558.073     430.569    -210.432
  H     -556.222     431.257    -208.078
  H     -556.367     433.547    -209.052
  H     -555.578     432.393    -210.167
  H     -565.729     429.998    -208.871
  H     -564.829     431.264    -209.711
  P     -556.516     428.587    -211.299
  C     -557.222     426.120    -211.752
  O     -557.277     427.237    -210.878
  O     -555.023     428.100    -211.600
  O     -557.125     429.294    -212.478
  H     -554.627     428.639    -212.308
  H     -557.775     425.308    -211.328
  H     -556.203     425.824    -211.889
  H     -557.646     426.386    -212.698

 6  7  8  9  10  11  12  13  14  15  25  28  32  33  34  35 0
 6-311+G(2d,p)
 ****
 36  37  40 0
 6-311+G(2d,p)
 ****
 1  2  3  4  5  16  17  18  19  20  21  22  23  24 0
 3-21G
 ****
 26  27  29  30  31  38  39 41  42  43  44  45  46  47  48 0
 3-21G
 ****


