%nproc=1
%NoSave
%Mem=1900MB
#P OB98/GEN NMR

erre ene a

0 1
  C       44.048     796.203      63.479
  O       43.287     796.298      64.687
  P       43.544     795.145      65.775
  C       44.386     796.853      67.541
  O       44.655     795.667      66.809
  C       44.952     796.755      68.962
  O       44.168     795.866      69.800
  C       46.381     796.235      69.001
  O       47.288     797.266      68.689
  C       46.490     795.761      70.460
  O       46.822     796.857      71.337
  C       45.066     795.244      70.744
  N       43.089     791.162      73.020
  C       43.172     792.470      73.461
  N       42.606     792.736      74.671
  N       43.737     793.432      72.773
  C       44.243     793.021      71.604
  C       44.192     791.761      71.032
  C       43.577     790.703      71.798
  O       43.457     789.536      71.439
  N       44.759     791.752      69.783
  C       45.261     792.974      69.646
  N       44.907     793.791      70.679
  O       44.296     794.002      64.928
  O       42.280     794.631      66.404
  H       46.751     796.556      72.269
  H       43.689     793.232      64.829
  H       42.646     790.449      73.587
  H       45.844     793.314      68.797
  H       44.737     795.538      71.751
  H       47.283     795.013      70.577
  H       42.157     792.035      75.240
  H       46.489     795.377      68.322
  H       42.655     793.688      75.002
  H       44.907     797.764      69.403
  H       43.319     797.027      67.581
  H       44.822     797.707      67.002
  P       48.540     796.914      67.748
  C       47.741     798.607      65.941
  O       48.121     797.285      66.244
  O       48.566     795.308      67.763
  O       49.843     797.484      68.198
  H       49.476     795.002      67.869
  H       47.988     798.821      64.910
  H       48.237     799.332      66.589
  H       46.647     798.702      66.069
  H       43.796     797.018      62.833
  H       43.826     795.278      62.989
  H       45.092     796.242      63.711

 3  4  5  6  7  8  9  10  11  12  23  26  30  31 0
 6-311+G(2d,p)
 ****
 33  35  36  37  38 0
 6-311+G(2d,p)
 ****
 1  2  13  14  15  16  17  18  19  20  21  22  24  25 0
 3-21G
 ****
 27  28  29  32  34  39  40  41  42  43  44  45  46  47  48  49 0
 3-21G
 ****


