%nproc=1
%NoSave
%Mem=1900MB
#P OB98/GEN NMR

erre ene a

0 1
  C     -256.497      -9.475      11.701
  O     -256.242      -8.396      10.802
  P     -255.361      -8.682       9.496
  C     -253.073      -8.010      10.505
  O     -253.871      -9.060       9.956
  C     -251.864      -8.585      11.255
  O     -251.058      -9.355      10.326
  C     -250.918      -7.528      11.853
  O     -251.175      -7.062      13.171
  C     -249.607      -8.320      11.921
  O     -249.578      -9.123      13.108
  C     -249.668      -9.224      10.693
  N     -245.125      -7.378       9.219
  C     -245.573      -7.815      10.415
  N     -246.797      -8.290      10.722
  C     -247.592      -8.300       9.643
  C     -247.266      -7.895       8.357
  C     -245.969      -7.409       8.156
  N     -245.509      -6.952       6.938
  N     -248.349      -8.054       7.503
  C     -249.306      -8.533       8.276
  N     -248.908      -8.713       9.565
  O     -255.452      -7.659       8.406
  O     -255.933     -10.100       8.992
  H     -248.726      -9.607      13.094
  H     -255.954     -10.107       8.021
  H     -244.860      -7.776      11.233
  H     -250.312      -8.754       7.936
  H     -249.287     -10.233      10.901
  H     -248.728      -7.660      11.963
  H     -250.805      -6.684      11.174
  H     -252.213      -9.263      12.050
  H     -253.685      -7.416      11.188
  H     -244.569      -6.579       6.896
  H     -246.138      -6.922       6.156
  H     -252.789      -7.357       9.681
  P     -251.787      -5.604      13.435
  C     -249.525      -4.597      14.304
  O     -250.548      -4.588      13.325
  O     -252.590      -5.468      14.691
  O     -252.599      -5.323      12.094
  H     -252.048      -5.204      11.296
  H     -248.683      -4.005      13.940
  H     -249.179      -5.623      14.496
  H     -249.900      -4.155      15.225
  H     -257.094      -9.126      12.517
  H     -255.569      -9.854      12.075
  H     -257.019     -10.254      11.185

 3  4  5  6  7  8  9  10  11  12  22  25  29  30  31  32 0
 6-311+G(2d,p)
 ****
 33  36  37 0
 6-311+G(2d,p)
 ****
 1  2  13  14  15  16  17  18  19  20  21  23  24  26 0
 3-21G
 ****
 27  28  34  35  38  39  40  41  42  43  44  45  46  47  48 0
 3-21G
 ****


