%nproc=1
%NoSave
%Mem=1900MB
#P OB98/GEN NMR

erre ene a

0 1
  C       62.391     119.389     241.179
  O       62.210     118.777     242.448
  P       61.205     117.536     242.635
  C       62.539     116.168     244.375
  O       62.150     116.297     243.013
  C       64.051     115.964     244.467
  O       64.727     117.130     243.946
  C       64.580     115.776     245.882
  O       64.308     114.466     246.361
  C       66.055     116.114     245.686
  O       66.751     114.990     245.127
  C       65.982     117.260     244.652
  N       66.114     118.580     245.260
  C       67.413     119.008     245.547
  O       68.389     118.298     245.291
  N       67.586     120.256     246.099
  C       66.552     121.000     246.357
  N       66.790     122.254     246.836
  C       65.167     120.565     246.120
  C       65.023     119.359     245.569
  O       60.291     117.291     241.481
  O       60.453     117.834     244.010
  H       66.808     114.316     245.833
  H       59.633     118.378     243.901
  H       64.335     121.216     246.362
  H       64.033     118.974     245.345
  H       66.773     117.134     243.899
  H       66.565     116.396     246.616
  H       64.121     116.508     246.561
  H       64.321     115.103     243.841
  H       67.754     122.572     246.816
  H       62.033     115.294     244.803
  H       66.086     122.978     246.788
  H       62.228     117.063     244.926
  P       62.962     114.251     247.207
  C       62.502     111.718     246.893
  O       62.188     113.036     246.497
  O       62.091     115.548     246.850
  O       63.176     114.100     248.677
  H       62.144     116.199     247.576
  H       61.740     111.040     246.502
  H       62.522     111.632     247.984
  H       63.476     111.425     246.480
  H       63.095     120.190     241.266
  H       61.455     119.774     240.832
  H       62.759     118.665     240.483

 3  4  5  6  7  8  9  10  11  12  13  23  27  28  29  30  32 0
 6-311+G(2d,p)
 ****
 34  35 0
 6-311+G(2d,p)
 ****
 1  2  14  15  16  17  18  19  20  21  22  24  25  26 0
 3-21G
 ****
 31  33  36  37  38  39  40  41  42  43  44  45  46 0
 3-21G
 ****


