%nproc=1
%NoSave
%Mem=1900MB
#P OB98/GEN NMR

erre ene a

0 1
  C     -270.779    -130.900     101.275
  O     -271.647    -130.549     102.334
  H     -271.371    -131.043     100.366
  H     -270.262    -131.835     101.507
  H     -270.050    -130.104     101.101
  P     -270.967    -130.254     103.757
  C     -273.061    -129.050     104.724
  O     -272.168    -130.155     104.817
  C     -273.941    -128.991     105.970
  O     -274.703    -130.217     106.078
  C     -273.168    -128.869     107.277
  O     -272.738    -127.544     107.520
  C     -274.203    -129.366     108.279
  O     -275.113    -128.325     108.656
  C     -274.946    -130.447     107.484
  N     -275.590    -134.213     110.860
  C     -276.205    -133.019     110.712
  N     -275.985    -132.076     109.769
  C     -275.025    -132.475     108.915
  C     -274.307    -133.658     108.946
  C     -274.624    -134.560     109.977
  N     -273.973    -135.760     110.151
  N     -273.373    -133.685     107.931
  C     -273.530    -132.541     107.293
  N     -274.520    -131.784     107.850
  O     -270.469    -128.739     103.607
  O     -269.856    -131.176     104.135
  H     -275.659    -128.682     109.383
  H     -269.533    -128.729     103.328
  H     -276.969    -132.789     111.448
  H     -272.951    -132.219     106.435
  H     -276.032    -130.402     107.637
  H     -273.728    -129.728     109.194
  H     -272.316    -129.563     107.278
  H     -274.649    -128.161     105.858
  H     -273.696    -129.173     103.840
  H     -272.476    -128.131     104.620
  H     -274.238    -136.346     110.926
  H     -273.180    -135.978     109.558
  P     -271.284    -127.312     108.146
  C     -270.592    -125.256     106.710
  O     -270.927    -125.754     107.998
  O     -270.309    -128.025     107.092
  O     -271.103    -127.854     109.525
  H     -270.047    -128.908     107.413
  H     -270.382    -124.209     106.776
  H     -271.413    -125.413     106.042
  H     -269.729    -125.771     106.342

 6  7  8  9  10  11  12  13  14  15  25  28  32  33  34  35 0
 6-311+G(2d,p)
 ****
 36  37  40 0
 6-311+G(2d,p)
 ****
 1  2  3  4  5  16  17  18  19  20  21  22  23  24 0
 3-21G
 ****
 26  27  29  30  31  38  39 41  42  43  44  45  46  47  48 0
 3-21G
 ****


