%nproc=1
%NoSave
%Mem=1900MB
#P OB98/GEN NMR

erre ene a

0 1
  C     -209.996    -585.334    -326.358
  O     -211.134    -585.687    -327.115
  H     -209.385    -586.227    -326.210
  H     -210.296    -584.952    -325.379
  H     -209.398    -584.583    -326.882
  P     -212.137    -584.531    -327.591
  C     -211.315    -584.625    -330.031
  O     -211.462    -583.827    -328.863
  C     -211.442    -583.755    -331.276
  O     -212.787    -583.241    -331.394
  C     -210.530    -582.532    -331.271
  O     -209.196    -582.898    -331.553
  C     -211.207    -581.676    -332.330
  O     -210.859    -582.117    -333.652
  C     -212.702    -581.953    -332.044
  N     -213.328    -580.908    -331.229
  C     -214.456    -580.302    -331.771
  O     -214.922    -580.602    -332.867
  N     -215.009    -579.298    -331.022
  C     -214.500    -578.797    -329.859
  O     -214.900    -577.759    -329.338
  C     -213.353    -579.524    -329.298
  C     -212.816    -580.521    -330.007
  O     -212.601    -583.597    -326.524
  O     -213.361    -585.338    -328.237
  H     -214.098    -585.371    -327.598
  H     -209.884    -582.062    -333.714
  H     -215.801    -578.820    -331.427
  H     -212.959    -579.198    -328.344
  H     -211.952    -581.053    -329.626
  H     -213.264    -582.034    -332.984
  H     -210.924    -580.625    -332.258
  H     -210.598    -582.017    -330.304
  H     -211.243    -584.382    -332.155
  H     -212.104    -585.386    -330.035
  H     -210.340    -585.124    -330.002
  P     -207.971    -581.966    -331.113
  C     -207.274    -583.898    -329.580
  O     -207.430    -582.492    -329.698
  O     -208.239    -580.500    -331.169
  O     -206.791    -582.368    -332.119
  H     -206.445    -581.560    -332.546
  H     -206.910    -584.136    -328.602
  H     -206.575    -584.242    -330.314
  H     -208.219    -584.376    -329.735

 6  7  8  9  10  11  12  13  14  15  16  27  31  32  33  34  35 0
 6-311+G(2d,p)
 ****
 36  37 0
 6-311+G(2d,p)
 ****
 1  2  3  4  5  17  18  19  20  21  22  23  24  25 0
 3-21G
 ****
 26  28  29  30  38  39  40  41  42  43  44  45 0
 3-21G
 ****


