%nproc=1
%NoSave
%Mem=1900MB
#P OB98/GEN NMR

erre ene a

0 1
  C       49.510     283.039     108.439
  O       50.537     282.277     107.834
  H       48.752     282.357     108.833
  H       49.043     283.699     107.703
  H       49.917     283.633     109.262
  P       51.700     283.107     107.099
  C       53.208     282.392     109.106
  O       52.725     283.448     108.289
  C       54.671     282.642     109.457
  O       55.203     281.545     110.230
  C       55.589     282.770     108.246
  O       55.514     284.044     107.627
  C       56.938     282.540     108.901
  O       57.335     283.724     109.618
  C       56.603     281.387     109.877
  N       56.843     280.062     109.303
  C       58.134     279.538     109.448
  O       59.009     280.182     110.023
  N       58.412     278.305     108.907
  C       57.484     277.648     108.285
  N       57.818     276.439     107.758
  C       56.108     278.154     108.124
  C       55.861     279.352     108.649
  O       51.023     284.527     106.806
  O       52.313     282.458     105.905
  H       58.220     283.548     109.988
  H       51.701     285.157     106.464
  H       55.370     277.572     107.587
  H       54.871     279.789     108.567
  H       57.185     281.477     110.802
  H       57.731     282.315     108.185
  H       55.412     281.969     107.520
  H       54.717     283.540     110.088
  H       58.784     276.147     107.829
  H       53.107     281.454     108.552
  H       57.221     275.944     107.108
  H       52.620     282.330     110.026
  P       56.317     284.250     106.252
  C       54.265     284.685     104.720
  O       55.333     283.812     105.062
  O       57.398     283.073     106.285
  O       56.956     285.595     106.091
  H       58.255     283.371     105.927
  H       53.701     284.261     103.916
  H       54.661     285.632     104.417
  H       53.629     284.820     105.570

 6  7  8  9  10  11  12  13  14  15  16  26  30  31  32  33  35 0
 6-311+G(2d,p)
 ****
 37  38 0
 6-311+G(2d,p)
 ****
 1  2  3  4  5  17  18  19  20  21  22  23  24  25 0
 3-21G
 ****
 27  28  29  34  36  39  40  41  42  43  44  45  46 0
 3-21G
 ****


