%nproc=1
%NoSave
%Mem=1900MB
#P OB98/GEN NMR

erre ene a

0 1
  C      190.139    -282.284    -118.072
  O      190.948    -282.354    -119.255
  P      191.661    -281.005    -119.752
  C      194.042    -280.742    -118.737
  O      193.247    -281.254    -119.803
  C      195.410    -281.445    -118.670
  O      195.267    -282.822    -118.231
  C      196.136    -281.494    -120.026
  O      197.550    -281.471    -119.774
  C      195.751    -282.861    -120.557
  O      196.646    -283.291    -121.589
  C      195.790    -283.682    -119.269
  N      196.081    -288.712    -119.492
  C      197.092    -287.760    -119.430
  N      198.353    -288.231    -119.386
  N      196.868    -286.472    -119.412
  C      195.544    -286.164    -119.422
  C      194.459    -287.004    -119.488
  C      194.720    -288.425    -119.532
  O      193.873    -289.324    -119.597
  N      193.277    -286.307    -119.499
  C      193.650    -285.039    -119.455
  N      195.010    -284.901    -119.364
  O      191.481    -280.028    -118.487
  O      191.056    -280.420    -120.986
  H      196.338    -284.175    -121.889
  H      190.819    -279.333    -118.706
  H      196.310    -289.696    -119.515
  H      192.978    -284.190    -119.476
  H      196.815    -283.968    -118.984
  H      194.738    -282.824    -120.977
  H      198.593    -289.210    -119.349
  H      195.883    -280.682    -120.714
  H      199.107    -287.552    -119.309
  H      196.030    -280.923    -117.935
  H      193.520    -280.878    -117.785
  H      194.158    -279.663    -118.863
  P      198.217    -280.040    -119.486
  C      198.038    -279.327    -116.996
  O      198.726    -280.086    -117.966
  O      196.958    -279.041    -119.433
  O      199.230    -279.607    -120.496
  H      197.235    -278.138    -119.655
  H      197.400    -279.991    -116.401
  H      197.416    -278.546    -117.451
  H      198.770    -278.836    -116.341
  H      189.730    -283.250    -117.862
  H      189.343    -281.586    -118.225
  H      190.741    -281.964    -117.247

 3  4  5  6  7  8  9  10  11  12  23  26  30  31 0
 6-311+G(2d,p)
 ****
 33  35  36  37  38 0
 6-311+G(2d,p)
 ****
 1  2  13  14  15  16  17  18  19  20  21  22  24  25 0
 3-21G
 ****
 27  28  29  32  34  39  40  41  42  43  44  45  46  47  48  49 0
 3-21G
 ****


