%nproc=1
%NoSave
%Mem=1900MB
#P OB98/GEN NMR

erre ene a

0 1
  C      172.740      47.625     -20.997
  O      172.003      46.424     -20.881
  P      170.881      46.019     -21.952
  C      170.913      45.375     -24.442
  O      171.633      45.969     -23.373
  C      171.436      45.854     -25.799
  O      170.899      47.176     -26.086
  C      172.966      45.944     -25.901
  O      173.298      45.613     -27.252
  C      173.225      47.414     -25.634
  O      174.503      47.840     -26.094
  C      172.018      48.054     -26.335
  N      171.772      49.412     -25.868
  C      172.738      50.369     -26.184
  O      173.781      50.038     -26.756
  N      172.537      51.670     -25.795
  C      171.504      51.965     -25.061
  N      171.351      53.269     -24.710
  C      170.526      50.960     -24.601
  C      170.708      49.720     -25.050
  O      169.647      46.855     -21.925
  O      170.610      44.472     -21.648
  H      175.189      47.315     -25.630
  H      170.042      44.372     -20.843
  H      169.714      51.243     -23.947
  H      170.043      48.914     -24.767
  H      172.177      48.082     -27.421
  H      173.181      47.607     -24.554
  H      173.489      45.290     -25.200
  H      171.050      45.174     -26.567
  H      172.039      53.927     -25.061
  H      169.863      45.664     -24.346
  H      170.543      53.619     -24.217
  H      170.968      44.282     -24.369
  P      174.760      45.080     -27.647
  C      176.196      43.097     -26.898
  O      175.185      44.019     -26.525
  O      175.770      46.144     -27.921
  O      174.510      44.164     -28.941
  H      175.365      44.004     -29.393
  H      176.597      42.627     -25.995
  H      177.011      43.601     -27.423
  H      175.769      42.325     -27.542
  H      173.431      47.699     -20.184
  H      172.070      48.459     -20.973
  H      173.277      47.626     -21.923

 3  4  5  6  7  8  9  10  11  12  13  23  27  28  29  30  32 0
 6-311+G(2d,p)
 ****
 34  35 0
 6-311+G(2d,p)
 ****
 1  2  14  15  16  17  18  19  20  21  22  24  25  26 0
 3-21G
 ****
 31  33  36  37  38  39  40  41  42  43  44  45  46 0
 3-21G
 ****


