%nproc=1
%NoSave
%Mem=1900MB
#P OB98/GEN NMR

erre ene a

0 1
  C     -158.021      48.845     -19.361
  O     -158.702      50.083     -19.579
  P     -159.033      51.062     -18.352
  C     -156.776      52.257     -18.526
  O     -158.191      52.421     -18.525
  C     -156.011      53.583     -18.621
  O     -156.466      54.366     -19.753
  C     -156.118      54.479     -17.383
  O     -154.864      55.161     -17.285
  C     -157.226      55.437     -17.773
  O     -157.232      56.620     -16.984
  C     -156.926      55.639     -19.265
  N     -158.091      56.115     -20.004
  C     -158.608      57.359     -19.638
  O     -158.123      57.978     -18.690
  N     -159.694      57.852     -20.319
  C     -160.271      57.120     -21.221
  N     -161.358      57.651     -21.844
  C     -159.812      55.764     -21.581
  C     -158.722      55.336     -20.947
  O     -158.923      50.431     -17.002
  O     -160.542      51.529     -18.631
  H     -156.392      57.101     -17.144
  H     -160.986      51.708     -17.781
  H     -160.341      55.181     -22.319
  H     -158.302      54.357     -21.143
  H     -156.112      56.362     -19.401
  H     -158.200      54.948     -17.645
  H     -156.336      53.928     -16.465
  H     -154.958      53.339     -18.812
  H     -161.657      58.573     -21.551
  H     -156.501      51.623     -19.376
  H     -161.945      57.127     -22.474
  H     -156.479      51.722     -17.618
  P     -153.596      54.509     -16.556
  C     -152.847      53.352     -18.712
  O     -152.490      54.260     -17.686
  O     -153.903      53.315     -15.711
  O     -152.968      55.695     -15.678
  H     -152.377      55.316     -15.002
  H     -152.117      53.426     -19.521
  H     -153.840      53.585     -19.108
  H     -152.842      52.331     -18.320
  H     -157.894      48.338     -20.295
  H     -158.597      48.233     -18.699
  H     -157.062      49.037     -18.926

 3  4  5  6  7  8  9  10  11  12  13  23  27  28  29  30  32 0
 6-311+G(2d,p)
 ****
 34  35 0
 6-311+G(2d,p)
 ****
 1  2  14  15  16  17  18  19  20  21  22  24  25  26 0
 3-21G
 ****
 31  33  36  37  38  39  40  41  42  43  44  45  46 0
 3-21G
 ****


