%nproc=1
%NoSave
%Mem=1900MB
#P OB98/GEN NMR

erre ene a

0 1
  C       24.229    -187.717      38.827
  O       23.498    -187.249      37.686
  P       22.551    -185.951      37.715
  C       20.144    -185.383      38.489
  O       21.205    -186.332      38.508
  C       18.782    -186.084      38.481
  O       18.602    -186.809      37.239
  C       18.589    -187.142      39.560
  O       18.400    -186.573      40.843
  C       17.378    -187.900      39.020
  O       16.150    -187.255      39.389
  C       17.583    -187.810      37.495
  N       17.943    -189.085      36.894
  C       16.887    -189.953      36.586
  O       15.731    -189.663      36.899
  N       17.178    -191.133      35.949
  C       18.411    -191.469      35.734
  N       18.635    -192.643      35.081
  C       19.558    -190.644      36.167
  C       19.253    -189.477      36.732
  O       22.305    -185.349      36.368
  O       23.287    -184.911      38.686
  H       23.031    -184.001      38.445
  H       15.426    -187.864      39.146
  H       20.573    -190.980      36.006
  H       20.035    -188.802      37.067
  H       16.676    -187.427      37.014
  H       17.330    -188.926      39.405
  H       19.461    -187.811      39.571
  H       18.001    -185.316      38.555
  H       17.826    -193.180      34.790
  H       20.236    -184.777      37.581
  H       19.555    -192.981      34.848
  H       20.238    -184.720      39.358
  P       19.668    -186.567      41.830
  C       21.166    -188.357      42.970
  O       20.025    -188.092      42.176
  O       19.070    -185.993      43.205
  O       20.820    -185.746      41.352
  H       19.727    -185.401      43.621
  H       21.011    -189.299      43.505
  H       21.347    -187.561      43.699
  H       22.041    -188.459      42.320
  H       24.784    -188.592      38.561
  H       23.546    -187.954      39.616
  H       24.903    -186.954      39.156

 3  4  5  6  7  8  9  10  11  12  13  24  27  28  29  30  32 0
 6-311+G(2d,p)
 ****
 34  35 0
 6-311+G(2d,p)
 ****
 1  2  14  15  16  17  18  19  20  21  22  23  25  26 0
 3-21G
 ****
 31  33  36  37  38  39  40  41  42  43  44  45  46 0
 3-21G
 ****


