%nproc=1
%NoSave
%Mem=1900MB
#P OB98/GEN NMR

erre ene a

0 1
  C     -916.735    -350.912    -491.434
  O     -916.342    -351.985    -492.260
  P     -914.785    -352.332    -492.459
  C     -914.397    -352.270    -495.006
  O     -914.666    -353.089    -493.873
  C     -914.475    -353.106    -496.282
  O     -913.591    -354.247    -496.216
  C     -915.849    -353.709    -496.544
  O     -916.909    -352.816    -496.833
  C     -915.516    -354.746    -497.608
  O     -915.411    -354.158    -498.905
  C     -914.129    -355.243    -497.125
  N     -914.205    -356.563    -496.500
  C     -913.218    -357.466    -496.863
  O     -912.318    -357.207    -497.663
  N     -913.311    -358.717    -496.299
  C     -914.308    -359.145    -495.469
  O     -914.349    -360.293    -495.036
  C     -915.328    -358.152    -495.131
  C     -915.243    -356.920    -495.649
  O     -914.140    -353.045    -491.316
  O     -914.127    -350.908    -492.787
  H     -916.272    -353.759    -499.111
  H     -914.483    -350.464    -493.582
  H     -912.609    -359.392    -496.568
  H     -916.121    -358.456    -494.458
  H     -915.989    -356.165    -495.415
  H     -913.426    -355.306    -497.972
  H     -916.282    -355.526    -497.665
  H     -916.162    -354.252    -495.652
  H     -914.140    -352.484    -497.117
  H     -913.395    -351.855    -494.916
  H     -915.110    -351.434    -495.031
  P     -918.300    -352.827    -496.038
  C     -919.956    -352.792    -498.035
  O     -919.400    -352.092    -496.937
  O     -918.251    -352.462    -494.589
  O     -918.742    -354.364    -496.169
  H     -919.246    -354.621    -495.375
  H     -920.647    -352.128    -498.558
  H     -920.502    -353.670    -497.689
  H     -919.163    -353.082    -498.737
  H     -917.803    -350.839    -491.428
  H     -916.318    -350.001    -491.810
  H     -916.383    -351.081    -490.438

 3  4  5  6  7  8  9  10  11  12  13  23  28  29  30  31  32 0
 6-311+G(2d,p)
 ****
 33  34 0
 6-311+G(2d,p)
 ****
 1  2  14  15  16  17  18  19  20  21  22  24  25  26  27 0
 3-21G
 ****
 35  36  37  38  39  40  41  42  43  44  45 0
 3-21G
 ****


