%nproc=1
%NoSave
%Mem=1900MB
#P OB98/GEN NMR

erre ene a

0 1
  C     -124.811     -14.030      32.267
  O     -124.988     -14.617      30.996
  H     -123.786     -14.213      32.596
  H     -125.499     -14.489      32.984
  H     -124.982     -12.952      32.233
  P     -126.266     -14.204      30.126
  C     -127.942     -15.853      31.188
  O     -127.565     -14.495      31.023
  C     -129.447     -16.040      30.960
  O     -129.761     -17.454      30.936
  C     -130.243     -15.429      32.115
  O     -131.533     -14.987      31.704
  C     -130.398     -16.597      33.074
  O     -131.489     -16.439      33.976
  C     -130.558     -17.759      32.095
  N     -131.776     -21.687      35.101
  C     -132.440     -20.491      34.915
  N     -133.566     -20.311      35.640
  N     -132.029     -19.554      34.102
  C     -130.849     -19.841      33.500
  C     -130.086     -20.979      33.623
  C     -130.573     -22.027      34.495
  O     -130.016     -23.100      34.713
  N     -128.942     -20.901      32.869
  C     -129.010     -19.717      32.295
  N     -130.157     -19.041      32.636
  O     -126.352     -15.348      29.008
  O     -126.217     -12.838      29.510
  H     -131.485     -17.205      34.579
  H     -126.817     -15.018      28.219
  H     -132.145     -22.382      35.727
  H     -128.262     -19.306      31.625
  H     -131.603     -17.851      31.771
  H     -129.489     -16.671      33.678
  H     -133.822     -20.922      36.399
  H     -129.715     -14.595      32.581
  H     -133.896     -19.346      35.738
  H     -129.736     -15.635      29.984
  H     -127.682     -16.139      32.212
  H     -127.368     -16.491      30.513
  P     -131.629     -13.581      30.942
  C     -131.983     -12.020      33.020
  O     -131.146     -12.440      31.960
  O     -133.202     -13.339      30.795
  O     -130.931     -13.564      29.623
  H     -133.484     -13.496      29.874
  H     -131.488     -11.257      33.584
  H     -132.197     -12.853      33.657
  H     -132.897     -11.632      32.621

 6  7  8  9  10  11  12  13  14  15  26  29  33  34 0
 6-311+G(2d,p)
 ****
 36  38  39  40  41 0
 6-311+G(2d,p)
 ****
 1  2  3  4  5  16  17  18  19  20  21  22  23  24  25 0
 3-21G
 ****
 27  28  30  31  32  35  37  42  43  44  45  46  47 0
 3-21G
 ****
 48  49 0
 3-21G
 ****


