%nproc=1
%NoSave
%Mem=1900MB
#P OB98/GEN NMR

erre ene a

0 1
  C     -234.358     104.190     -60.494
  O     -233.128     103.897     -59.827
  P     -233.219     103.174     -58.393
  C     -233.465     105.287     -56.873
  O     -234.082     104.156     -57.460
  C     -234.365     105.901     -55.792
  O     -234.594     104.922     -54.729
  C     -233.802     107.171     -55.137
  O     -234.920     108.038     -54.892
  C     -233.230     106.663     -53.830
  O     -233.108     107.697     -52.863
  C     -234.250     105.565     -53.485
  N     -233.741     104.606     -52.507
  C     -233.667     105.028     -51.189
  O     -233.940     106.175     -50.838
  N     -233.227     104.104     -50.285
  C     -232.789     102.844     -50.575
  O     -232.407     102.050     -49.725
  C     -232.780     102.493     -52.007
  C     -233.245     103.374     -52.888
  O     -231.721     103.337     -57.860
  O     -233.715     101.771     -58.482
  H     -231.308     104.182     -58.107
  H     -232.617     107.352     -52.089
  H     -233.202     104.378     -49.310
  H     -232.385     101.518     -52.283
  H     -233.233     103.152     -53.950
  H     -235.166     106.009     -53.083
  H     -232.239     106.226     -53.998
  H     -233.067     107.682     -55.769
  H     -235.339     106.114     -56.248
  H     -233.272     106.048     -57.637
  H     -232.488     104.994     -56.452
  P     -235.422     108.986     -56.093
  C     -233.987     111.151     -55.737
  O     -234.208     109.960     -56.461
  O     -236.418     109.953     -55.278
  O     -236.096     108.279     -57.221
  H     -236.034     110.291     -54.458
  H     -232.997     111.537     -55.983
  H     -234.036     110.968     -54.660
  H     -234.739     111.901     -56.013
  H     -234.152     104.667     -61.429
  H     -234.948     104.842     -59.884
  H     -234.895     103.281     -60.668

 3  4  5  6  7  8  9  10  11  12  13  24  28  29  30  31  32 0
 6-311+G(2d,p)
 ****
 33  34 0
 6-311+G(2d,p)
 ****
 1  2  14  15  16  17  18  19  20  21  22  23  25  26  27 0
 3-21G
 ****
 35  36  37  38  39  40  41  42  43  44  45 0
 3-21G
 ****


