%nproc=1
%NoSave
%Mem=1900MB
#P OB98/GEN NMR

erre ene a

0 1
  C      -23.883     -50.645      77.065
  O      -23.837     -49.289      76.648
  P      -22.440     -48.512      76.794
  C      -23.276     -47.179      78.847
  O      -22.312     -48.091      78.339
  C      -23.244     -47.149      80.372
  O      -23.447     -48.500      80.873
  C      -21.925     -46.631      80.966
  O      -22.213     -45.741      82.055
  C      -21.283     -47.879      81.550
  O      -20.387     -47.571      82.612
  C      -22.528     -48.658      81.973
  N      -21.582     -52.016      85.625
  C      -22.012     -50.707      85.720
  N      -22.154     -50.208      86.969
  N      -22.275     -49.952      84.686
  C      -22.119     -50.592      83.502
  C      -21.708     -51.887      83.279
  C      -21.362     -52.691      84.432
  O      -20.891     -53.826      84.412
  N      -21.689     -52.180      81.939
  C      -22.083     -51.067      81.350
  N      -22.307     -50.058      82.254
  O      -22.726     -47.125      76.045
  O      -21.259     -49.207      76.211
  H      -19.819     -48.355      82.743
  H      -22.065     -46.991      75.339
  H      -21.376     -52.547      86.455
  H      -22.185     -50.935      80.281
  H      -22.981     -48.205      82.864
  H      -20.728     -48.399      80.763
  H      -22.002     -50.746      87.807
  H      -21.273     -46.130      80.245
  H      -22.491     -49.258      87.059
  H      -24.092     -46.548      80.727
  H      -24.273     -47.486      78.515
  H      -23.065     -46.180      78.449
  P      -21.089     -44.640      82.381
  C      -20.088     -46.016      84.354
  O      -19.889     -45.438      83.079
  O      -21.734     -43.796      83.579
  O      -20.721     -43.786      81.213
  H      -21.353     -42.899      83.609
  H      -21.138     -45.983      84.664
  H      -19.485     -45.475      85.088
  H      -19.761     -47.059      84.326
  H      -24.868     -51.032      76.911
  H      -23.634     -50.707      78.104
  H      -23.182     -51.218      76.495

 3  4  5  6  7  8  9  10  11  12  23  26  30  31  33  0
 6-311+G(2d,p)
 ****
 35  36  37  38 0
 6-311+G(2d,p)
 ****
 1  2  13  14  15  16  17  18  19  20  21  22  24  25  27  28  29 0
 3-21G
 ****
 32  34  39  40  41  42  43  44  45  46  47  48  49 0
 3-21G
 ****


