%nproc=1
%NoSave
%Mem=1900MB
#P OB98/GEN NMR

erre ene a

0 1
  C     1079.225     998.108    -270.514
  O     1079.669     996.846    -270.982
  H     1080.096     998.752    -270.332
  H     1078.686     997.987    -269.567
  H     1078.585     998.583    -271.247
  P     1078.535     995.832    -271.507
  C     1078.004     997.388    -273.511
  O     1077.496     996.702    -272.355
  C     1077.475     996.709    -274.787
  O     1076.045     996.507    -274.701
  C     1077.720     997.508    -276.065
  O     1079.025     997.320    -276.568
  C     1076.662     996.888    -276.987
  O     1077.152     995.605    -277.462
  C     1075.485     996.709    -276.019
  N     1071.645     998.978    -278.414
  C     1072.349     997.844    -278.764
  N     1071.991     997.220    -279.918
  N     1073.323     997.345    -278.044
  C     1073.574     998.080    -276.928
  C     1072.955     999.220    -276.482
  C     1071.865     999.748    -277.292
  O     1071.183    1000.731    -277.014
  N     1073.496     999.669    -275.309
  C     1074.463     998.811    -275.046
  N     1074.570     997.833    -276.013
  O     1077.709     995.486    -270.166
  O     1079.043     994.597    -272.167
  H     1076.513     995.265    -278.094
  H     1077.424     994.547    -270.209
  H     1070.902     999.324    -279.002
  H     1075.107     998.866    -274.181
  H     1074.898     995.815    -276.270
  H     1076.476     997.502    -277.867
  H     1071.272     997.577    -280.529
  H     1077.499     998.574    -275.927
  H     1072.466     996.376    -280.158
  H     1077.944     995.722    -274.855
  H     1079.089     997.343    -273.513
  H     1077.672     998.431    -273.483
  P     1079.642     998.471    -277.515
  C     1080.785     999.639    -275.509
  O     1079.847     999.750    -276.566
  O     1078.389     998.883    -278.439
  O     1080.834     998.049    -278.318
  H     1078.720     999.287    -279.260
  H     1080.818    1000.559    -274.963
  H     1081.754     999.429    -275.912
  H     1080.492     998.846    -274.854

 6  7  8  9  10  11  12  13  14  15  26  29  33  34 0
 6-311+G(2d,p)
 ****
 36  38  39  40  41 0
 6-311+G(2d,p)
 ****
 1  2  3  4  5  16  17  18  19  20  21  22  23  24  25 0
 3-21G
 ****
 27  28  30  31  32  35  37  42  43  44  45  46  47 0
 3-21G
 ****
 48  49 0
 3-21G
 ****


