%nproc=1
%NoSave
%Mem=1900MB
#P OB98/GEN NMR

erre ene a

0 1
  C      170.242      54.395     121.864
  O      171.440      54.595     122.625
  P      171.344      55.470     123.964
  C      170.857      53.494     125.582
  O      170.389      54.699     124.994
  C      171.275      53.742     127.036
  O      170.173      54.229     127.833
  C      171.782      52.492     127.745
  O      173.149      52.239     127.455
  C      171.631      52.902     129.201
  O      172.739      53.740     129.591
  C      170.329      53.712     129.178
  N      165.945      53.717     131.702
  C      166.883      54.718     131.546
  N      166.610      55.897     132.147
  N      167.991      54.577     130.865
  C      168.122      53.350     130.308
  C      167.264      52.277     130.392
  C      166.052      52.442     131.159
  O      165.189      51.587     131.344
  N      167.744      51.200     129.697
  C      168.881      51.622     129.176
  N      169.163      52.917     129.533
  O      170.440      56.715     123.510
  O      172.661      55.915     124.503
  H      173.552      53.243     129.379
  H      170.657      57.495     124.049
  H      165.114      53.878     132.242
  H      169.529      51.033     128.540
  H      170.355      54.568     129.861
  H      171.632      52.043     129.879
  H      165.755      56.090     132.643
  H      171.143      51.626     127.531
  H      167.270      56.654     132.016
  H      172.069      54.502     127.037
  H      171.703      53.098     125.016
  H      170.071      52.737     125.515
  P      173.531      50.809     126.833
  C      172.801      51.314     124.392
  O      172.553      50.595     125.584
  O      172.982      49.788     127.937
  O      174.983      50.611     126.571
  H      173.539      48.986     127.957
  H      172.148      50.927     123.607
  H      173.841      51.194     124.078
  H      172.581      52.374     124.543
  H      170.461      53.796     121.005
  H      169.857      55.342     121.550
  H      169.514      53.897     122.470

 3  4  5  6  7  8  9  10  11  12  23  26  30  31 0
 6-311+G(2d,p)
 ****
 33  35  36  37  38 0
 6-311+G(2d,p)
 ****
 1  2  13  14  15  16  17  18  19  20  21  22  24  25 0
 3-21G
 ****
 27  28  29  32  34  39  40  41  42  43  44  45  46  47  48  49 0
 3-21G
 ****


