%nproc=1
%NoSave
%Mem=1900MB
#P OB98/GEN NMR

erre ene a

0 1
  C      -62.122     -48.395      13.536
  O      -61.108     -49.378      13.571
  H      -62.688     -48.508      12.608
  H      -61.681     -47.395      13.560
  H      -62.800     -48.524      14.382
  P      -60.116     -49.352      14.831
  C      -58.219     -48.104      13.569
  O      -59.158     -48.080      14.635
  C      -56.977     -47.312      13.962
  O      -57.320     -45.919      14.143
  C      -56.352     -47.750      15.279
  O      -55.577     -48.928      15.140
  C      -55.513     -46.530      15.619
  O      -54.242     -46.561      14.951
  C      -56.387     -45.369      15.095
  N      -57.061     -44.657      16.175
  C      -56.332     -43.633      16.771
  O      -55.189     -43.330      16.427
  N      -56.946     -42.986      17.809
  C      -58.174     -43.285      18.322
  O      -58.637     -42.715      19.302
  C      -58.905     -44.367      17.643
  C      -58.321     -45.001      16.623
  O      -59.154     -50.602      14.561
  O      -60.784     -49.433      16.163
  H      -59.414     -51.351      15.128
  H      -53.710     -45.842      15.344
  H      -56.428     -42.250      18.260
  H      -59.887     -44.625      18.021
  H      -58.833     -45.817      16.120
  H      -55.769     -44.645      14.548
  H      -55.307     -46.471      16.688
  H      -57.127     -47.873      16.045
  H      -56.247     -47.382      13.145
  H      -58.666     -47.649      12.678
  H      -57.964     -49.144      13.342
  P      -55.453     -49.916      16.398
  C      -53.242     -48.752      17.208
  O      -54.570     -49.148      17.495
  O      -54.470     -51.034      15.817
  O      -56.764     -50.424      16.893
  H      -53.796     -50.673      15.217
  H      -52.825     -48.258      18.061
  H      -53.242     -48.083      16.373
  H      -52.655     -49.615      16.973

 6  7  8  9  10  11  12  13  14  15  16  27  31  32  33  34  35 0
 6-311+G(2d,p)
 ****
 36  37 0
 6-311+G(2d,p)
 ****
 1  2  3  4  5  17  18  19  20  21  22  23  24  25 0
 3-21G
 ****
 26  28  29  30  38  39  40  41  42  43  44  45 0
 3-21G
 ****


