%nproc=1
%NoSave
%Mem=1900MB
#P OB98/GEN NMR

erre ene a

0 1
  C      305.413      18.123      74.950
  O      306.695      18.639      74.650
  H      305.529      17.229      75.567
  H      304.896      17.850      74.024
  H      304.825      18.863      75.500
  P      306.754      20.049      73.892
  C      305.561      20.766      71.662
  O      306.323      19.790      72.365
  C      306.393      21.356      70.526
  O      307.524      22.091      71.034
  C      307.018      20.314      69.614
  O      306.069      19.670      68.788
  C      308.013      21.176      68.850
  O      307.364      21.924      67.814
  C      308.518      22.120      69.972
  N      309.841      21.751      70.460
  C      310.919      22.400      69.844
  O      310.719      23.235      68.959
  N      312.194      22.067      70.229
  C      312.379      21.183      71.161
  N      313.666      20.892      71.489
  C      311.270      20.496      71.853
  C      310.043      20.819      71.453
  O      308.325      20.321      73.776
  O      305.981      21.154      74.541
  H      308.024      22.565      67.481
  H      308.818      19.590      73.367
  H      311.470      19.773      72.632
  H      309.173      20.362      71.906
  H      308.563      23.156      69.611
  H      308.793      20.579      68.372
  H      307.587      19.586      70.203
  H      305.754      22.054      69.965
  H      314.402      21.368      70.980
  H      305.215      21.553      72.339
  H      313.933      20.196      72.175
  H      304.675      20.264      71.259
  P      306.216      18.109      68.447
  C      307.785      16.680      66.985
  O      307.368      17.999      67.332
  O      304.940      17.416      68.091
  O      306.942      17.513      69.744
  H      307.814      17.898      69.936
  H      308.550      16.733      66.239
  H      306.950      16.131      66.602
  H      308.168      16.187      67.854

 6  7  8  9  10  11  12  13  14  15  16  26  30  31  32  33  35 0
 6-311+G(2d,p)
 ****
 37  38 0
 6-311+G(2d,p)
 ****
 1  2  3  4  5  17  18  19  20  21  22  23  24  25 0
 3-21G
 ****
 27  28  29  34  36  39  40  41  42  43  44  45  46 0
 3-21G
 ****


