%nproc=1
%NoSave
%Mem=1900MB
#P OB98/GEN NMR

erre ene a

0 1
  C      -12.095    -113.373      88.580
  O      -12.503    -112.215      87.839
  P      -13.726    -111.271      88.281
  C      -16.296    -111.290      87.961
  O      -15.036    -111.741      87.479
  C      -17.436    -111.795      87.073
  O      -17.378    -111.153      85.773
  C      -17.402    -113.283      86.753
  O      -17.781    -114.080      87.861
  C      -18.360    -113.356      85.566
  O      -19.725    -113.449      85.999
  C      -18.121    -112.005      84.864
  N      -17.428    -112.140      83.592
  C      -18.186    -111.906      82.437
  O      -19.394    -111.685      82.520
  N      -17.551    -111.948      81.222
  C      -16.304    -112.296      81.152
  N      -15.725    -112.301      79.919
  C      -15.507    -112.683      82.333
  C      -16.126    -112.581      83.509
  O      -13.438    -109.808      88.156
  O      -14.041    -111.669      89.801
  H      -14.447    -110.910      90.259
  H      -20.256    -113.685      85.215
  H      -14.482    -113.008      82.227
  H      -15.609    -112.830      84.431
  H      -19.075    -111.489      84.703
  H      -18.164    -114.229      84.932
  H      -16.391    -113.558      86.421
  H      -18.388    -111.529      87.550
  H      -16.297    -112.022      79.130
  H      -16.299    -110.193      87.953
  H      -14.758    -112.535      79.761
  H      -16.428    -111.627      88.997
  P      -16.929    -115.418      88.120
  C      -16.487    -117.639      86.849
  O      -17.114    -116.369      86.842
  O      -17.750    -116.167      89.277
  O      -15.511    -115.179      88.526
  H      -17.124    -116.578      89.905
  H      -17.062    -118.317      86.211
  H      -16.432    -118.060      87.857
  H      -15.476    -117.542      86.440
  H      -11.264    -113.835      88.090
  H      -12.908    -114.067      88.634
  H      -11.809    -113.081      89.569

 3  4  5  6  7  8  9  10  11  12  13  24  27  28  29  30  32 0
 6-311+G(2d,p)
 ****
 34  35 0
 6-311+G(2d,p)
 ****
 1  2  14  15  16  17  18  19  20  21  22  23  25  26 0
 3-21G
 ****
 31  33  36  37  38  39  40  41  42  43  44  45  46 0
 3-21G
 ****


