%nproc=1
%NoSave
%Mem=1900MB
#P OB98/GEN NMR

erre ene a

0 1
  C     -240.247     480.363     326.878
  O     -240.807     479.184     327.423
  H     -240.781     481.224     327.288
  H     -240.354     480.370     325.788
  H     -239.191     480.446     327.150
  P     -240.217     477.771     326.945
  C     -239.875     476.681     324.624
  O     -240.617     477.622     325.395
  C     -240.228     476.816     323.143
  O     -239.884     478.139     322.665
  C     -239.503     475.827     322.237
  O     -240.152     474.567     322.245
  C     -239.632     476.534     320.894
  O     -240.966     476.357     320.380
  C     -239.416     478.006     321.294
  N     -236.213     481.383     319.245
  C     -237.547     481.137     318.961
  N     -238.093     481.883     317.980
  N     -238.269     480.239     319.585
  C     -237.574     479.528     320.496
  C     -236.247     479.665     320.853
  C     -235.467     480.697     320.202
  O     -234.294     480.963     320.440
  N     -235.869     478.694     321.750
  C     -236.972     478.014     321.981
  N     -238.036     478.471     321.233
  O     -240.591     476.584     327.781
  O     -238.633     477.996     326.893
  H     -241.043     476.914     319.582
  H     -238.214     477.747     327.740
  H     -235.703     482.079     318.728
  H     -237.062     477.186     322.673
  H     -240.006     478.693     320.677
  H     -238.941     476.149     320.139
  H     -237.554     482.475     317.366
  H     -238.439     475.745     322.490
  H     -239.053     481.675     317.716
  H     -241.320     476.713     323.045
  H     -240.136     475.681     324.989
  H     -238.798     476.832     324.766
  P     -239.327     473.193     322.066
  C     -238.209     472.011     320.053
  O     -239.020     473.086     320.495
  O     -239.978     471.989     322.653
  O     -237.884     473.514     322.664
  H     -237.831     473.387     323.649
  H     -238.090     472.067     318.991
  H     -238.675     471.083     320.312
  H     -237.250     472.071     320.523

 6  7  8  9  10  11  12  13  14  15  26  29  33  34 0
 6-311+G(2d,p)
 ****
 36  38  39  40  41 0
 6-311+G(2d,p)
 ****
 1  2  3  4  5  16  17  18  19  20  21  22  23  24  25 0
 3-21G
 ****
 27  28  30  31  32  35  37  42  43  44  45  46  47 0
 3-21G
 ****
 48  49 0
 3-21G
 ****


