%nproc=1
%NoSave
%Mem=1900MB
#P OB98/GEN NMR

erre ene a

0 1
  C     -764.790     196.830     268.269
  O     -765.466     195.670     268.721
  H     -765.024     196.983     267.213
  H     -763.708     196.687     268.373
  H     -765.108     197.713     268.835
  P     -765.530     195.444     270.311
  C     -767.634     196.900     270.774
  O     -766.229     196.758     270.928
  C     -768.322     196.832     272.132
  O     -767.815     197.862     273.002
  C     -769.841     197.019     272.077
  O     -770.506     195.807     271.763
  C     -770.115     197.440     273.519
  O     -770.088     196.275     274.373
  C     -768.921     198.350     273.821
  N     -769.623     202.975     275.803
  C     -769.506     201.749     276.436
  N     -769.575     201.756     277.779
  N     -769.316     200.626     275.809
  C     -769.285     200.756     274.451
  C     -769.403     201.919     273.712
  C     -769.582     203.157     274.425
  O     -769.692     204.276     273.917
  N     -769.315     201.664     272.369
  C     -769.160     200.358     272.293
  N     -769.142     199.759     273.527
  O     -763.996     195.587     270.752
  O     -766.099     194.137     270.746
  H     -770.363     196.565     275.255
  H     -763.631     194.695     270.908
  H     -769.767     203.813     276.337
  H     -769.061     199.795     271.375
  H     -768.613     198.283     274.875
  H     -771.108     197.896     273.636
  H     -769.745     202.588     278.328
  H     -770.122     197.830     271.404
  H     -769.480     200.875     278.268
  H     -768.071     195.865     272.589
  H     -768.004     196.093     270.135
  H     -767.835     197.867     270.297
  P     -771.759     195.864     270.763
  C     -770.404     195.207     268.646
  O     -771.182     196.205     269.302
  O     -772.490     197.221     271.201
  O     -772.683     194.701     270.826
  H     -773.355     197.010     271.621
  H     -770.090     195.571     267.690
  H     -770.994     194.324     268.515
  H     -769.544     194.977     269.240

 6  7  8  9  10  11  12  13  14  15  26  29  33  34 0
 6-311+G(2d,p)
 ****
 36  38  39  40  41 0
 6-311+G(2d,p)
 ****
 1  2  3  4  5  16  17  18  19  20  21  22  23  24  25 0
 3-21G
 ****
 27  28  30  31  32  35  37  42  43  44  45  46  47 0
 3-21G
 ****
 48  49 0
 3-21G
 ****


