%nproc=1
%NoSave
%Mem=1900MB
#P OB98/GEN NMR

erre ene a

0 1
  C     -296.739     135.114     -58.492
  O     -296.427     136.491     -58.570
  H     -297.786     134.974     -58.764
  H     -296.585     134.755     -57.470
  H     -296.111     134.544     -59.185
  P     -294.915     136.903     -58.221
  C     -293.663     136.285     -60.425
  O     -294.233     137.301     -59.618
  C     -293.897     136.584     -61.911
  O     -295.313     136.422     -62.202
  C     -293.520     138.018     -62.325
  O     -293.133     137.995     -63.708
  C     -294.851     138.738     -62.176
  O     -294.814     139.999     -62.811
  C     -295.776     137.676     -62.759
  N     -300.390     138.780     -64.670
  C     -299.196     138.574     -65.263
  N     -298.013     138.271     -64.696
  C     -298.147     138.166     -63.359
  C     -299.297     138.335     -62.614
  C     -300.466     138.662     -63.324
  N     -301.684     138.880     -62.722
  N     -299.039     138.147     -61.265
  C     -297.752     137.865     -61.206
  N     -297.173     137.870     -62.443
  O     -294.230     135.505     -57.849
  O     -294.760     137.910     -57.136
  H     -294.087     140.551     -62.452
  H     -294.245     135.375     -56.881
  H     -299.188     138.664     -66.353
  H     -297.197     137.656     -60.296
  H     -295.688     137.609     -63.849
  H     -295.079     138.923     -61.124
  H     -292.707     138.445     -61.720
  H     -293.357     135.840     -62.513
  H     -294.135     135.325     -60.160
  H     -292.586     136.219     -60.228
  H     -302.471     139.127     -63.297
  H     -301.754     138.812     -61.717
  P     -291.701     138.597     -64.126
  C     -291.617     137.370     -66.436
  O     -291.595     138.601     -65.729
  O     -290.702     137.406     -63.732
  O     -291.308     139.867     -63.441
  H     -289.827     137.770     -63.518
  H     -291.537     137.560     -67.486
  H     -292.536     136.860     -66.235
  H     -290.795     136.762     -66.120

 6  7  8  9  10  11  12  13  14  15  25  28  32  33  34  35 0
 6-311+G(2d,p)
 ****
 36  37  40 0
 6-311+G(2d,p)
 ****
 1  2  3  4  5  16  17  18  19  20  21  22  23  24 0
 3-21G
 ****
 26  27  29  30  31  38  39 41  42  43  44  45  46  47  48 0
 3-21G
 ****


