%nproc=1
%NoSave
%Mem=1900MB
#P OB98/GEN NMR

erre ene a

0 1
  C      142.980     -84.580     -62.975
  O      142.784     -84.579     -61.560
  P      143.901     -83.916     -60.621
  C      144.105     -86.085     -59.260
  O      143.912     -84.680     -59.208
  C      143.119     -86.847     -58.363
  O      142.876     -86.118     -57.127
  C      141.750     -87.108     -59.010
  O      141.306     -88.386     -58.545
  C      140.897     -85.997     -58.424
  O      139.508     -86.261     -58.538
  C      141.453     -85.947     -56.998
  N      141.119     -84.707     -56.313
  C      139.969     -84.704     -55.522
  O      139.228     -85.688     -55.508
  N      139.674     -83.574     -54.796
  C      140.383     -82.500     -54.968
  N      140.073     -81.410     -54.216
  C      141.496     -82.416     -55.933
  C      141.821     -83.550     -56.546
  O      143.861     -82.425     -60.530
  O      145.272     -84.412     -61.295
  H      139.291     -86.415     -59.483
  H      145.943     -83.706     -61.200
  H      142.003     -81.478     -56.103
  H      142.626     -83.595     -57.263
  H      141.074     -86.788     -56.403
  H      141.106     -85.057     -58.952
  H      141.780     -87.114     -60.103
  H      143.582     -87.804     -58.090
  H      139.291     -81.475     -53.577
  H      145.127     -86.319     -58.948
  H      140.609     -80.552     -54.255
  H      144.025     -86.419     -60.301
  P      140.481     -89.334     -59.544
  C      139.459     -90.956     -57.787
  O      140.358     -90.779     -58.863
  O      141.562     -89.605     -60.702
  O      139.239     -88.748     -60.132
  H      141.091     -89.824     -61.528
  H      139.297     -92.026     -57.640
  H      138.495     -90.484     -57.991
  H      139.888     -90.536     -56.873
  H      142.148     -85.057     -63.450
  H      143.878     -85.112     -63.210
  H      143.060     -83.572     -63.325

 3  4  5  6  7  8  9  10  11  12  13  23  27  28  29  30  32 0
 6-311+G(2d,p)
 ****
 34  35 0
 6-311+G(2d,p)
 ****
 1  2  14  15  16  17  18  19  20  21  22  24  25  26 0
 3-21G
 ****
 31  33  36  37  38  39  40  41  42  43  44  45  46 0
 3-21G
 ****


