%nproc=1
%NoSave
%Mem=1900MB
#P OB98/GEN NMR

erre ene a

0 1
  C      144.577      84.724     118.016
  O      144.698      84.045     116.786
  P      145.453      84.730     115.548
  C      145.077      87.003     114.398
  O      144.461      85.860     114.984
  C      144.055      87.788     113.578
  O      143.658      87.047     112.393
  C      142.747      88.056     114.307
  O      142.793      88.912     115.430
  C      141.844      88.469     113.155
  O      142.045      89.837     112.800
  C      142.344      87.537     112.022
  N      141.412      86.439     111.766
  C      140.987      86.297     110.448
  O      141.353      87.033     109.531
  N      140.090      85.288     110.215
  C      139.552      84.459     111.156
  O      138.717      83.604     110.885
  C      140.027      84.668     112.533
  C      140.921      85.633     112.773
  O      145.964      83.782     114.513
  O      146.597      85.604     116.253
  H      141.481      90.025     112.024
  H      146.269      86.285     116.868
  H      139.760      85.176     109.270
  H      139.630      84.017     113.302
  H      141.283      85.804     113.782
  H      142.471      88.102     111.090
  H      140.785      88.352     113.408
  H      142.365      87.098     114.685
  H      144.526      88.713     113.237
  H      145.884      86.672     113.737
  H      145.520      87.624     115.184
  P      141.798      88.781     116.678
  C      139.239      88.924     117.065
  O      140.318      89.156     116.187
  O      142.266      89.367     117.970
  O      141.695      87.184     116.839
  H      141.558      86.966     117.781
  H      138.311      89.191     116.556
  H      139.335      89.542     117.965
  H      139.190      87.866     117.344
  H      144.046      84.109     118.712
  H      144.042      85.638     117.867
  H      145.551      84.940     118.402

 3  4  5  6  7  8  9  10  11  12  13  23  28  29  30  31  32 0
 6-311+G(2d,p)
 ****
 33  34 0
 6-311+G(2d,p)
 ****
 1  2  14  15  16  17  18  19  20  21  22  24  25  26  27 0
 3-21G
 ****
 35  36  37  38  39  40  41  42  43  44  45 0
 3-21G
 ****


