%nproc=1
%NoSave
%Mem=1900MB
#P OB98/GEN NMR

erre ene a

0 1
  C     1161.795     924.439    -898.825
  O     1162.115     923.219    -898.188
  P     1163.257     922.310    -898.853
  C     1164.442     921.626    -896.642
  O     1163.649     921.225    -897.743
  C     1164.578     920.494    -895.641
  O     1165.158     919.336    -896.285
  C     1165.499     920.798    -894.471
  O     1164.841     921.632    -893.526
  C     1165.823     919.413    -893.950
  O     1164.820     918.950    -893.027
  C     1165.802     918.561    -895.245
  N     1167.137     918.137    -895.669
  C     1167.793     917.247    -894.798
  O     1167.243     916.873    -893.753
  N     1169.053     916.837    -895.117
  C     1169.624     917.272    -896.213
  N     1170.873     916.811    -896.482
  C     1168.975     918.226    -897.139
  C     1167.751     918.619    -896.795
  O     1164.523     923.281    -898.891
  O     1162.903     921.769    -900.214
  H     1165.250     918.232    -892.509
  H     1165.135     923.035    -899.609
  H     1169.489     918.565    -898.023
  H     1167.203     919.319    -897.425
  H     1165.190     917.663    -895.104
  H     1166.779     919.368    -893.432
  H     1166.427     921.285    -894.823
  H     1163.585     920.220    -895.284
  H     1171.301     916.182    -895.826
  H     1163.950     922.478    -896.136
  H     1171.397     917.080    -897.314
  H     1165.425     921.957    -897.011
  P     1165.585     922.967    -893.071
  C     1163.392     924.146    -892.406
  O     1164.620     923.609    -891.953
  O     1165.327     923.933    -894.324
  O     1167.034     922.874    -892.718
  H     1165.822     924.766    -894.206
  H     1162.782     924.405    -891.539
  H     1162.864     923.398    -893.026
  H     1163.566     925.041    -892.988
  H     1161.023     924.936    -898.276
  H     1161.455     924.243    -899.820
  H     1162.665     925.061    -898.861

 3  4  5  6  7  8  9  10  11  12  13  21  23  27  28  29  30  32 0
 6-311+G(2d,p)
 ****
 34  35 0
 6-311+G(2d,p)
 ****
 1  2  14  15  16  17  18  19  20  22  24  25  26 0
 3-21G
 ****
 31  33  36  37  38  39  40  41  42  43  44  45  46 0
 3-21G
 ****


