%nproc=1
%NoSave
%Mem=1900MB
#P OB98/GEN NMR

erre ene a

0 1
  C      -38.969     362.454     -65.328
  O      -40.377     362.478     -65.170
  P      -41.210     363.478     -66.115
  C      -41.465     366.062     -66.061
  O      -40.606     364.945     -65.870
  C      -40.876     367.328     -65.435
  O      -39.586     367.593     -66.030
  C      -41.744     368.576     -65.610
  O      -41.639     369.358     -64.418
  C      -41.070     369.319     -66.749
  O      -41.359     370.714     -66.713
  C      -39.594     368.954     -66.509
  N      -38.786     369.106     -67.716
  C      -38.111     370.320     -67.875
  O      -38.278     371.227     -67.066
  N      -37.313     370.490     -68.980
  C      -37.274     369.572     -69.893
  N      -36.461     369.786     -70.966
  C      -38.069     368.327     -69.822
  C      -38.776     368.155     -68.707
  O      -42.638     363.542     -65.393
  O      -41.315     363.045     -67.540
  H      -40.960     371.087     -65.897
  H      -43.352     363.666     -66.044
  H      -38.029     367.609     -70.629
  H      -39.371     367.263     -68.555
  H      -39.166     369.588     -65.723
  H      -41.415     368.919     -67.711
  H      -42.796     368.337     -65.804
  H      -40.705     367.133     -64.367
  H      -35.942     370.651     -70.999
  H      -42.426     365.860     -65.583
  H      -36.372     369.125     -71.726
  H      -41.642     366.207     -67.131
  P      -42.793     370.433     -64.127
  C      -43.577     372.521     -65.401
  O      -42.500     371.642     -65.142
  O      -42.302     371.054     -62.734
  O      -44.204     369.950     -64.036
  H      -42.964     371.694     -62.409
  H      -43.204     373.367     -65.990
  H      -43.998     372.898     -64.468
  H      -44.352     372.003     -65.976
  H      -38.545     361.751     -64.642
  H      -38.571     363.428     -65.131
  H      -38.727     362.166     -66.330

 3  4  5  6  7  8  9  10  11  12  13  21  23  27  28  29  30  32 0
 6-311+G(2d,p)
 ****
 34  35 0
 6-311+G(2d,p)
 ****
 1  2  14  15  16  17  18  19  20  22  24  25  26 0
 3-21G
 ****
 31  33  36  37  38  39  40  41  42  43  44  45  46 0
 3-21G
 ****


