%nproc=1
%NoSave
%Mem=1900MB
#P OB98/GEN NMR

erre ene a

0 1
  C       48.973    -139.579    -264.536
  O       48.832    -139.415    -265.934
  H       48.669    -140.593    -264.269
  H       48.326    -138.870    -264.012
  H       50.014    -139.430    -264.232
  P       49.438    -138.080    -266.583
  C       48.048    -138.263    -268.776
  O       49.338    -138.259    -268.177
  C       48.048    -139.155    -270.019
  O       47.738    -140.518    -269.613
  C       47.019    -138.748    -271.080
  O       47.585    -138.989    -272.378
  C       45.875    -139.721    -270.844
  O       45.040    -139.915    -271.979
  C       46.654    -140.980    -270.445
  N       45.821    -141.948    -269.729
  C       45.487    -143.124    -270.398
  O       45.913    -143.442    -271.512
  N       44.621    -143.958    -269.735
  C       44.052    -143.726    -268.515
  O       43.268    -144.500    -267.981
  C       44.433    -142.467    -267.863
  C       45.285    -141.647    -268.492
  O       51.007    -138.220    -266.294
  O       48.873    -136.800    -266.064
  H       51.233    -137.820    -265.433
  H       44.515    -139.095    -272.099
  H       44.371    -144.812    -270.209
  H       43.997    -142.240    -266.896
  H       45.573    -140.697    -268.045
  H       47.094    -141.456    -271.326
  H       45.251    -139.368    -270.020
  H       46.691    -137.705    -271.013
  H       49.063    -139.169    -270.443
  H       47.781    -137.241    -269.068
  H       47.313    -138.628    -268.045
  P       47.055    -138.086    -273.599
  C       46.655    -139.901    -275.451
  O       47.486    -138.869    -274.932
  O       48.060    -136.847    -273.517
  O       45.605    -137.743    -273.481
  H       48.959    -137.100    -273.246
  H       47.100    -140.306    -276.336
  H       45.692    -139.499    -275.687
  H       46.548    -140.675    -274.720

 6  7  8  9  10  11  12  13  14  15  16  27  31  32  33  34  35 0
 6-311+G(2d,p)
 ****
 36  37 0
 6-311+G(2d,p)
 ****
 1  2  3  4  5  17  18  19  20  21  22  23  24  25 0
 3-21G
 ****
 26  28  29  30  38  39  40  41  42  43  44  45 0
 3-21G
 ****


