%nproc=1
%NoSave
%Mem=1900MB
#P OB98/GEN NMR

erre ene a

0 1
  C     -222.805      67.107      -9.058
  O     -222.160      66.206      -9.939
  P     -222.938      65.586     -11.190
  C     -221.626      67.011     -12.869
  O     -222.916      66.682     -12.366
  C     -221.306      66.216     -14.133
  O     -222.261      66.566     -15.172
  C     -219.899      66.460     -14.704
  O     -219.466      65.224     -15.279
  C     -220.160      67.470     -15.812
  O     -219.123      67.508     -16.784
  C     -221.500      66.963     -16.334
  N     -222.833      68.598     -20.993
  C     -222.045      67.578     -20.590
  N     -221.718      67.222     -19.330
  C     -222.299      68.044     -18.438
  C     -223.102      69.142     -18.701
  C     -223.382      69.405     -20.056
  N     -224.213      70.419     -20.484
  N     -223.457      69.771     -17.521
  C     -222.883      69.061     -16.570
  N     -222.228      67.974     -17.074
  O     -224.288      65.026     -10.886
  O     -221.950      64.450     -11.736
  H     -219.331      68.207     -17.432
  H     -222.299      63.567     -11.499
  H     -221.625      66.962     -21.383
  H     -222.908      69.291     -15.513
  H     -221.387      66.084     -16.980
  H     -220.254      68.474     -15.380
  H     -219.176      66.821     -13.969
  H     -221.448      65.149     -13.913
  H     -220.892      66.772     -12.094
  H     -224.450      70.433     -21.462
  H     -224.837      70.860     -19.810
  H     -221.573      68.086     -13.075
  P     -217.897      64.930     -15.451
  C     -217.841      64.126     -13.020
  O     -217.262      64.986     -13.984
  O     -217.203      65.750     -16.486
  O     -217.850      63.363     -15.804
  H     -216.984      63.145     -16.199
  H     -218.758      64.581     -12.631
  H     -217.137      63.983     -12.196
  H     -218.079      63.151     -13.455
  H     -222.122      67.407      -8.291
  H     -223.652      66.627      -8.614
  H     -223.129      67.969      -9.603

 3  4  5  6  7  8  9  10  11  12  22  25  29  30  31  32 0
 6-311+G(2d,p)
 ****
 33  36  37 0
 6-311+G(2d,p)
 ****
 1  2  13  14  15  16  17  18  19  20  21  23  24  26 0
 3-21G
 ****
 27  28  34  35  38  39  40  41  42  43  44  45  46  47  48 0
 3-21G
 ****


