%nproc=1
%NoSave
%Mem=1900MB
#P OB98/GEN NMR

erre ene a

0 1
  C     -198.922     204.880    -303.334
  O     -198.251     205.187    -302.124
  P     -197.476     206.580    -301.936
  C     -196.554     207.701    -299.810
  O     -197.602     206.912    -300.369
  C     -197.086     208.520    -298.633
  O     -198.229     209.287    -299.091
  C     -197.588     207.715    -297.434
  O     -196.575     207.320    -296.520
  C     -198.498     208.744    -296.767
  O     -197.698     209.681    -296.021
  C     -199.141     209.437    -297.972
  N     -203.629     210.319    -300.272
  C     -202.524     211.086    -300.120
  N     -201.379     210.788    -299.477
  C     -201.420     209.533    -298.994
  C     -202.469     208.626    -299.076
  C     -203.621     209.069    -299.755
  N     -204.737     208.274    -299.932
  N     -202.143     207.444    -298.446
  C     -200.917     207.623    -298.005
  N     -200.430     208.865    -298.318
  O     -197.915     207.663    -302.862
  O     -195.933     206.201    -302.101
  H     -197.137     210.155    -296.668
  H     -195.409     207.010    -302.267
  H     -202.573     212.075    -300.564
  H     -200.345     206.897    -297.457
  H     -199.282     210.512    -297.810
  H     -199.207     208.297    -296.063
  H     -198.193     206.856    -297.755
  H     -196.304     209.230    -298.326
  H     -196.187     208.384    -300.586
  H     -205.459     208.626    -300.537
  H     -204.667     207.292    -299.694
  H     -195.731     207.053    -299.505
  P     -196.912     206.084    -295.544
  C     -195.431     204.155    -294.557
  O     -195.582     205.186    -295.516
  O     -198.168     205.357    -295.875
  O     -196.919     206.762    -294.096
  H     -196.054     207.094    -293.786
  H     -194.545     203.570    -294.814
  H     -196.297     203.492    -294.560
  H     -195.292     204.590    -293.567
  H     -199.372     203.912    -303.257
  H     -198.220     204.884    -304.142
  H     -199.681     205.612    -303.517

 3  4  5  6  7  8  9  10  11  12  22  25  29  30  31  32 0
 6-311+G(2d,p)
 ****
 33  36  37 0
 6-311+G(2d,p)
 ****
 1  2  13  14  15  16  17  18  19  20  21  23  24  26 0
 3-21G
 ****
 27  28  34  35  38  39  40  41  42  43  44  45  46  47  48 0
 3-21G
 ****


