%nproc=1
%NoSave
%Mem=1900MB
#P OB98/GEN NMR

erre ene a

0 1
  C      119.530     355.317     -19.827
  O      120.316     354.696     -20.829
  H      118.557     354.820     -19.788
  H      119.381     356.374     -20.075
  H      120.016     355.226     -18.850
  P      121.845     355.158     -20.938
  C      121.352     357.082     -22.660
  O      121.847     356.707     -21.382
  C      121.305     358.602     -22.779
  O      120.282     359.164     -21.931
  C      122.576     359.294     -22.317
  O      123.654     359.108     -23.200
  C      122.091     360.738     -22.225
  O      122.049     361.346     -23.523
  C      120.659     360.542     -21.665
  N      120.570     360.861     -20.244
  C      120.264     362.198     -19.937
  O      120.085     363.013     -20.845
  N      120.205     362.573     -18.620
  C      120.403     361.691     -17.688
  N      120.340     362.123     -16.400
  C      120.701     360.269     -17.963
  C      120.770     359.931     -19.250
  O      122.343     354.412     -22.263
  O      122.682     354.895     -19.726
  H      121.752     360.651     -24.142
  H      121.783     354.582     -23.040
  H      120.849     359.568     -17.152
  H      120.981     358.909     -19.537
  H      119.945     361.177     -22.203
  H      122.747     361.354     -21.605
  H      122.837     358.966     -21.299
  H      121.063     358.858     -23.817
  H      120.159     363.110     -16.251
  H      120.359     356.651     -22.835
  H      120.512     361.538     -15.596
  H      122.026     356.666     -23.415
  P      125.129     358.807     -22.644
  C      125.847     361.279     -22.667
  O      125.594     360.142     -21.866
  O      126.102     358.311     -23.648
  O      124.861     357.788     -21.433
  H      124.291     358.132     -20.722
  H      126.146     362.095     -22.043
  H      124.958     361.544     -23.200
  H      126.628     361.058     -23.364

 6  7  8  9  10  11  12  13  14  15  16  26  30  31  32  33  35 0
 6-311+G(2d,p)
 ****
 37  38 0
 6-311+G(2d,p)
 ****
 1  2  3  4  5  17  18  19  20  21  22  23  24  25 0
 3-21G
 ****
 27  28  29  34  36  39  40  41  42  43  44  45  46 0
 3-21G
 ****


