%nproc=1
%NoSave
%Mem=1900MB
#P OB98/GEN NMR

erre ene a

0 1
  C      146.080    -325.736     -54.818
  O      147.000    -326.582     -55.478
  P      146.671    -327.142     -56.944
  C      145.571    -329.378     -57.692
  O      145.590    -328.311     -56.768
  C      144.340    -330.266     -57.482
  O      143.176    -329.537     -57.945
  C      144.348    -331.572     -58.272
  O      143.399    -332.468     -57.689
  C      143.855    -331.119     -59.625
  O      143.348    -332.202     -60.407
  C      142.816    -330.021     -59.262
  N      142.822    -328.921     -60.237
  C      142.531    -329.248     -61.552
  O      142.198    -330.381     -61.904
  N      142.712    -328.252     -62.473
  C      143.197    -327.007     -62.206
  O      143.642    -326.247     -63.053
  C      143.262    -326.651     -60.774
  C      143.100    -327.616     -59.870
  O      148.015    -327.916     -57.338
  O      146.319    -326.095     -57.945
  H      144.056    -332.891     -60.420
  H      148.590    -327.346     -57.881
  H      142.640    -328.533     -63.443
  H      143.497    -325.623     -60.514
  H      143.193    -327.394     -58.806
  H      141.802    -330.435     -59.216
  H      144.689    -330.675     -60.184
  H      145.333    -332.053     -58.335
  H      144.209    -330.464     -56.414
  H      146.492    -329.962     -57.584
  H      145.566    -328.992     -58.717
  P      143.665    -334.044     -57.831
  C      143.545    -335.759     -59.737
  O      143.382    -334.409     -59.371
  O      142.994    -334.915     -56.828
  O      145.264    -334.151     -57.734
  H      145.522    -335.066     -57.515
  H      142.872    -335.984     -60.573
  H      143.320    -336.438     -58.902
  H      144.575    -335.927     -60.064
  H      146.469    -325.466     -53.858
  H      145.149    -326.249     -54.694
  H      145.926    -324.853     -55.402

 3  4  5  6  7  8  9  10  11  12  13  23  28  29  30  31  32 0
 6-311+G(2d,p)
 ****
 33  34 0
 6-311+G(2d,p)
 ****
 1  2  14  15  16  17  18  19  20  21  22  24  25  26  27 0
 3-21G
 ****
 35  36  37  38  39  40  41  42  43  44  45 0
 3-21G
 ****


