%nproc=1
%NoSave
%Mem=1900MB
#P OB98/GEN NMR

erre ene a

0 1
  C      144.603    -190.288    -241.928
  O      145.460    -189.753    -242.914
  H      143.603    -190.392    -242.357
  H      144.545    -189.618    -241.067
  H      144.954    -191.274    -241.612
  P      146.983    -189.438    -242.525
  C      148.547    -189.884    -244.528
  O      147.711    -188.942    -243.866
  C      147.748    -190.642    -245.595
  O      147.010    -189.665    -246.370
  C      148.650    -191.436    -246.551
  O      148.271    -192.806    -246.662
  C      148.647    -190.588    -247.817
  O      148.897    -191.312    -249.005
  C      147.284    -189.890    -247.766
  N      147.238    -188.633    -248.508
  C      147.515    -188.685    -249.872
  O      147.783    -189.705    -250.500
  N      147.470    -187.483    -250.532
  C      147.196    -186.267    -249.976
  O      147.168    -185.226    -250.618
  C      146.941    -186.274    -248.526
  C      146.973    -187.435    -247.870
  O      147.697    -190.523    -241.791
  O      146.891    -188.100    -241.650
  H      149.749    -191.781    -248.883
  H      147.024    -188.317    -240.708
  H      147.653    -187.509    -251.522
  H      146.734    -185.326    -248.049
  H      146.787    -187.477    -246.801
  H      146.505    -190.538    -248.166
  H      149.436    -189.833    -247.728
  H      149.675    -191.490    -246.165
  H      147.018    -191.287    -245.097
  H      148.932    -190.580    -243.776
  H      149.390    -189.362    -244.996
  P      148.972    -194.016    -245.895
  C      147.152    -195.877    -245.506
  O      148.225    -195.371    -246.292
  O      149.245    -193.799    -244.444
  O      150.396    -194.165    -246.638
  H      151.029    -194.476    -245.958
  H      146.791    -196.787    -245.938
  H      146.361    -195.157    -245.477
  H      147.497    -196.067    -244.511

 6  7  8  9  10  11  12  13  14  15  16  26  31  32  33  34  35 0
 6-311+G(2d,p)
 ****
 36  37 0
 6-311+G(2d,p)
 ****
 1  2  3  4  5  17  18  19  20  21  22  23  24  25 0
 3-21G
 ****
 27  28  29  30  38  39  40  41  42  43  44  45 0
 3-21G
 ****


