%nproc=1
%NoSave
%Mem=1900MB
#P OB98/GEN NMR

erre ene a

0 1
  C     -190.050     140.564    1039.124
  O     -190.197     140.926    1037.770
  H     -189.558     139.586    1039.176
  H     -191.028     140.483    1039.610
  H     -189.428     141.291    1039.653
  P     -190.954     142.297    1037.418
  C     -189.024     143.738    1036.473
  O     -189.879     143.473    1037.586
  C     -187.641     144.186    1036.958
  O     -187.794     145.493    1037.578
  C     -187.039     143.224    1037.997
  O     -185.722     142.796    1037.648
  C     -187.230     143.972    1039.308
  O     -186.299     143.622    1040.314
  C     -187.197     145.448    1038.889
  N     -187.893     146.338    1039.802
  C     -187.186     146.801    1040.912
  O     -186.012     146.527    1041.171
  N     -187.878     147.636    1041.755
  C     -189.187     148.023    1041.606
  O     -189.751     148.768    1042.397
  C     -189.887     147.471    1040.436
  C     -189.219     146.669    1039.594
  O     -192.241     142.524    1038.131
  O     -191.163     142.223    1035.829
  H     -186.416     144.262    1041.053
  H     -192.101     142.024    1035.635
  H     -187.373     147.991    1042.543
  H     -190.920     147.754    1040.289
  H     -189.706     146.256    1038.722
  H     -186.162     145.796    1038.802
  H     -188.227     143.733    1039.706
  H     -187.607     142.289    1038.023
  H     -186.987     144.301    1036.085
  H     -189.493     144.525    1035.870
  H     -188.926     142.827    1035.868
  P     -185.333     141.317    1037.174
  C     -184.845     141.814    1034.638
  O     -185.662     141.183    1035.620
  O     -185.796     140.201    1038.064
  O     -183.722     141.323    1037.204
  H     -183.439     140.415    1037.439
  H     -185.232     141.604    1033.663
  H     -183.845     141.441    1034.713
  H     -184.844     142.872    1034.801

 6  7  8  9  10  11  12  13  14  15  16  26  31  32  33  34  35 0
 6-311+G(2d,p)
 ****
 36  37 0
 6-311+G(2d,p)
 ****
 1  2  3  4  5  17  18  19  20  21  22  23  24  25 0
 3-21G
 ****
 27  28  29  30  38  39  40  41  42  43  44  45 0
 3-21G
 ****


