%nproc=1
%NoSave
%Mem=1900MB
#P OB98/GEN NMR

erre ene a

0 1
  C       50.862      99.218      25.047
  O       50.484      98.492      26.206
  P       49.320      97.396      26.059
  C       47.333      99.033      26.326
  O       48.046      98.164      25.452
  C       45.833      98.973      26.046
  O       45.610      99.204      24.626
  C       45.177      97.627      26.404
  O       43.925      97.872      27.063
  C       44.872      97.008      25.051
  O       43.788      96.084      25.115
  C       44.589      98.265      24.228
  N       43.008      95.297      20.458
  C       42.597      95.344      21.772
  N       41.670      94.433      22.149
  N       43.049      96.204      22.648
  C       43.947      97.077      22.123
  C       44.429      97.136      20.836
  C       43.964      96.137      19.895
  O       44.357      95.988      18.742
  N       45.317      98.172      20.682
  C       45.376      98.734      21.873
  N       44.599      98.079      22.794
  O       48.907      97.110      27.577
  O       49.712      96.140      25.358
  H       43.773      95.603      24.264
  H       48.987      96.155      27.765
  H       42.644      94.601      19.830
  H       45.988      99.595      22.124
  H       43.613      98.688      24.504
  H       45.761      96.481      24.687
  H       41.252      93.767      21.519
  H       45.801      96.975      27.025
  H       41.337      94.469      23.105
  H       45.344      99.796      26.582
  H       47.685     100.057      26.177
  H       47.534      98.735      27.361
  P       43.644      97.005      28.384
  C       42.261      95.199      27.112
  O       43.411      95.500      27.877
  O       42.187      97.488      28.840
  O       44.668      97.186      29.458
  H       42.061      97.339      29.798
  H       41.719      96.100      26.806
  H       41.593      94.569      27.704
  H       42.567      94.652      26.215
  H       51.642      99.907      25.296
  H       50.017      99.757      24.672
  H       51.212      98.538      24.299

 3  4  5  6  7  8  9  10  11  12  23  26  30  31  33  0
 6-311+G(2d,p)
 ****
 35  36  37  38 0
 6-311+G(2d,p)
 ****
 1  2  13  14  15  16  17  18  19  20  21  22  24  25  27  28  29 0
 3-21G
 ****
 32  34  39  40  41  42  43  44  45  46  47  48  49 0
 3-21G
 ****


