%nproc=1
%NoSave
%Mem=1900MB
#P OB98/GEN NMR

erre ene a

0 1
  C      277.712     351.715      53.993
  O      278.368     352.762      53.314
  H      276.826     352.113      54.493
  H      278.373     351.278      54.749
  H      277.391     350.938      53.287
  P      279.603     352.415      52.360
  C      281.583     350.798      52.723
  O      280.762     351.806      53.296
  C      282.275     350.006      53.829
  O      281.337     349.687      54.883
  C      282.848     348.669      53.368
  O      284.036     348.835      52.620
  C      283.008     347.953      54.697
  O      284.227     348.342      55.343
  C      281.789     348.456      55.496
  N      280.709     347.455      55.531
  C      281.050     346.208      56.029
  O      282.172     345.923      56.437
  N      280.064     345.267      55.995
  C      278.843     345.407      55.387
  O      278.085     344.469      55.163
  C      278.515     346.763      54.938
  C      279.447     347.720      55.012
  O      280.041     353.504      51.439
  O      279.098     351.128      51.544
  H      278.821     351.405      50.649
  H      284.952     347.929      54.822
  H      280.313     344.338      56.318
  H      277.530     346.947      54.516
  H      279.246     348.716      54.651
  H      282.072     348.701      56.524
  H      283.034     346.864      54.568
  H      282.090     348.135      52.769
  H      283.067     350.633      54.264
  H      282.332     351.272      52.085
  H      280.963     350.137      52.106
  P      284.766     347.556      51.971
  C      285.662     345.304      52.823
  O      285.333     346.649      53.168
  O      285.760     347.867      50.898
  O      283.565     346.675      51.393
  H      283.769     346.432      50.459
  H      286.028     344.793      53.689
  H      286.416     345.305      52.064
  H      284.789     344.806      52.457

 6  7  8  9  10  11  12  13  14  15  16  27  31  32  33  34  35 0
 6-311+G(2d,p)
 ****
 36  37 0
 6-311+G(2d,p)
 ****
 1  2  3  4  5  17  18  19  20  21  22  23  24  25 0
 3-21G
 ****
 26  28  29  30  38  39  40  41  42  43  44  45 0
 3-21G
 ****


