%nproc=1
%NoSave
%Mem=1900MB
#P OB98/GEN NMR

erre ene a

0 1
  C       66.526    -898.990     781.157
  O       67.292    -897.840     781.490
  H       67.133    -899.880     781.411
  H       66.314    -899.000     780.087
  H       65.601    -899.020     781.729
  P       66.620    -896.390     781.313
  C       67.785    -896.090     779.034
  O       66.536    -896.090     779.730
  C       67.619    -896.730     777.655
  O       66.394    -896.220     777.059
  C       68.772    -896.410     776.696
  O       69.034    -897.560     775.893
  C       68.236    -895.300     775.817
  O       68.835    -895.250     774.535
  C       66.736    -895.660     775.769
  N       66.168    -891.680     772.703
  C       67.077    -892.730     772.647
  N       67.983    -892.700     771.654
  N       67.069    -893.710     773.506
  C       66.115    -893.630     774.451
  C       65.154    -892.640     774.615
  C       65.159    -891.550     773.657
  O       64.399    -890.590     773.641
  N       64.363    -892.890     775.696
  C       64.841    -894.020     776.214
  N       65.908    -894.490     775.494
  O       67.236    -895.300     782.117
  O       65.083    -896.640     781.714
  H       68.372    -894.560     774.017
  H       64.912    -896.330     782.630
  H       66.198    -890.950     772.030
  H       64.463    -894.510     777.080
  H       66.509    -896.400     774.994
  H       68.372    -894.320     776.313
  H       68.008    -891.970     770.947
  H       69.690    -896.090     777.223
  H       68.648    -893.480     771.587
  H       67.506    -897.800     777.791
  H       68.517    -896.660     779.618
  H       68.141    -895.040     778.954
  P       70.208    -898.570     776.354
  C       71.935    -897.680     774.689
  O       71.617    -897.880     776.057
  O       70.057    -900.000     775.876
  O       70.101    -898.510     777.978
  H       70.385    -899.370     778.339
  H       72.895    -897.214     774.610
  H       71.195    -897.051     774.239
  H       71.954    -898.624     774.186

 6  7  8  9  10  11  12  13  14  15  26  29  33  34 0
 6-311+G(2d,p)
 ****
 36  38  39  40  41 0
 6-311+G(2d,p)
 ****
 1  2  3  4  5  16  17  18  19  20  21  22  23  24  25 0
 3-21G
 ****
 27  28  30  31  32  35  37  42  43  44  45  46  47 0
 3-21G
 ****
 48  49 0
 3-21G
 ****


