%nproc=1
%NoSave
%Mem=1900MB
#P OB98/GEN NMR

erre ene a

0 1
  C      703.533    -335.818    1276.921
  O      703.306    -337.083    1276.302
  P      704.528    -338.092    1276.009
  C      706.539    -338.093    1274.403
  O      705.381    -337.378    1274.849
  C      706.595    -338.053    1272.872
  O      706.599    -336.649    1272.440
  C      707.855    -338.662    1272.235
  O      707.808    -340.078    1272.062
  C      707.836    -337.975    1270.876
  O      706.882    -338.629    1270.018
  C      707.369    -336.556    1271.223
  N      711.162    -334.040    1268.901
  C      710.196    -334.876    1268.423
  N      709.246    -335.529    1269.117
  C      709.301    -335.211    1270.415
  C      710.221    -334.379    1271.041
  C      711.192    -333.775    1270.236
  N      712.145    -332.911    1270.706
  N      709.970    -334.296    1272.405
  C      708.920    -335.084    1272.596
  N      708.470    -335.637    1271.418
  O      704.116    -339.500    1275.740
  O      705.473    -337.948    1277.300
  H      707.215    -339.540    1269.855
  H      706.097    -338.695    1277.345
  H      710.223    -335.061    1267.360
  H      708.437    -335.265    1273.539
  H      706.707    -336.133    1270.459
  H      708.796    -338.035    1270.364
  H      708.760    -338.359    1272.779
  H      705.679    -338.532    1272.460
  H      706.444    -339.139    1274.731
  H      712.717    -332.432    1270.019
  H      712.056    -332.575    1271.674
  H      707.436    -337.651    1274.837
  P      709.213    -340.863    1271.988
  C      711.117    -340.812    1270.186
  O      709.729    -340.650    1270.479
  O      709.145    -342.274    1272.473
  O      710.187    -339.928    1272.860
  H      710.371    -339.046    1272.468
  H      711.225    -340.785    1269.107
  H      711.486    -341.783    1270.559
  H      711.680    -339.988    1270.624
  H      702.602    -335.301    1277.028
  H      704.196    -335.238    1276.314
  H      703.971    -335.967    1277.886

 3  4  5  6  7  8  9  10  11  12  22  25  29  30  31  32 0
 6-311+G(2d,p)
 ****
 33  36  37 0
 6-311+G(2d,p)
 ****
 1  2  13  14  15  16  17  18  19  20  21  23  24  26 0
 3-21G
 ****
 27  28  34  35  38  39  40  41  42  43  44  45  46  47  48 0
 3-21G
 ****


