%nproc=1
%NoSave
%Mem=1900MB
#P OB98/GEN NMR

erre ene a

0 1
  C       28.527     -59.834      86.434
  O       27.281     -59.796      87.109
  P       27.133     -60.370      88.593
  C       25.655     -62.525      88.842
  O       26.896     -61.944      88.504
  C       24.694     -62.373      87.655
  O       25.167     -63.141      86.530
  C       23.290     -62.859      88.004
  O       22.477     -61.778      88.431
  C       22.826     -63.488      86.704
  O       22.344     -62.477      85.799
  C       24.140     -64.104      86.170
  N       24.550     -65.424      86.686
  C       24.134     -66.579      86.030
  O       23.456     -66.576      85.008
  N       24.511     -67.762      86.615
  C       25.281     -67.889      87.735
  O       25.405     -68.926      88.377
  C       25.907     -66.654      88.215
  C       25.503     -65.496      87.693
  O       25.709     -59.807      89.057
  O       28.223     -59.988      89.540
  H       21.969     -62.938      85.028
  H       25.818     -59.010      89.608
  H       24.095     -68.602      86.224
  H       26.635     -66.723      89.012
  H       25.925     -64.564      88.060
  H       24.122     -64.177      85.076
  H       21.993     -64.168      86.871
  H       23.339     -63.641      88.773
  H       24.668     -61.317      87.355
  H       25.243     -62.039      89.732
  H       25.790     -63.584      89.085
  P       21.285     -62.046      89.464
  C       19.148     -61.498      88.159
  O       20.043     -62.514      88.563
  O       21.000     -60.936      90.421
  O       21.748     -63.380      90.221
  H       22.167     -63.148      91.075
  H       18.462     -61.910      87.415
  H       19.693     -60.659      87.717
  H       18.569     -61.153      89.020
  H       28.418     -59.405      85.460
  H       28.852     -60.849      86.342
  H       29.251     -59.276      86.990

 3  4  5  6  7  8  9  10  11  12  13  23  28  29  30  31  32 0
 6-311+G(2d,p)
 ****
 33  34 0
 6-311+G(2d,p)
 ****
 1  2  14  15  16  17  18  19  20  21  22  24  25  26  27 0
 3-21G
 ****
 35  36  37  38  39  40  41  42  43  44  45 0
 3-21G
 ****


