%nproc=1
%NoSave
%Mem=1900MB
#P OB98/GEN NMR

erre ene a

0 1
  C     -156.845    -269.561      24.028
  O     -157.409    -270.256      22.932
  H     -156.420    -270.287      24.724
  H     -157.625    -268.994      24.543
  H     -156.051    -268.887      23.693
  P     -157.791    -269.386      21.640
  C     -157.202    -271.083      19.767
  O     -158.228    -270.429      20.501
  C     -157.722    -271.505      18.397
  O     -158.732    -272.524      18.532
  C     -158.353    -270.374      17.587
  O     -157.371    -269.609      16.899
  C     -159.204    -271.168      16.611
  O     -158.368    -271.720      15.573
  C     -159.741    -272.299      17.505
  N     -164.787    -272.547      17.062
  C     -163.802    -272.887      16.157
  N     -164.221    -273.352      14.959
  N     -162.523    -272.778      16.398
  C     -162.249    -272.275      17.628
  C     -163.141    -271.896      18.609
  C     -164.550    -272.039      18.331
  O     -165.464    -271.761      19.106
  N     -162.492    -271.434      19.723
  C     -161.215    -271.510      19.409
  N     -161.015    -272.013      18.145
  O     -156.366    -268.849      21.141
  O     -158.739    -268.259      21.890
  H     -157.662    -272.229      16.012
  H     -156.268    -267.917      21.413
  H     -165.762    -272.640      16.823
  H     -160.398    -271.225      20.059
  H     -159.865    -273.240      16.954
  H     -159.963    -270.559      16.118
  H     -165.192    -273.441      14.700
  H     -158.998    -269.741      18.209
  H     -163.516    -273.610      14.280
  H     -156.884    -271.951      17.843
  H     -156.876    -271.967      20.320
  H     -156.355    -270.396      19.651
  P     -157.446    -268.009      17.002
  C     -154.866    -267.768      17.039
  O     -156.080    -267.435      16.382
  O     -157.283    -267.749      18.574
  O     -158.700    -267.396      16.477
  H     -158.122    -267.413      18.945
  H     -154.045    -267.320      16.519
  H     -154.745    -268.831      17.048
  H     -154.893    -267.403      18.045

 6  7  8  9  10  11  12  13  14  15  26  29  33  34 0
 6-311+G(2d,p)
 ****
 36  38  39  40  41 0
 6-311+G(2d,p)
 ****
 1  2  3  4  5  16  17  18  19  20  21  22  23  24  25 0
 3-21G
 ****
 27  28  30  31  32  35  37  42  43  44  45  46  47 0
 3-21G
 ****
 48  49 0
 3-21G
 ****


