%nproc=1
%NoSave
%Mem=1900MB
#P OB98/GEN NMR

erre ene a

0 1
  C     -798.744    -310.505     116.192
  O     -799.627    -310.040     117.197
  P     -801.035    -310.782     117.343
  C     -801.085    -310.183     119.891
  O     -801.766    -310.165     118.635
  C     -801.966    -309.540     120.968
  O     -802.087    -308.120     120.723
  C     -803.383    -310.077     120.988
  O     -803.457    -311.335     121.652
  C     -804.127    -308.969     121.735
  O     -803.983    -309.113     123.147
  C     -803.388    -307.703     121.225
  N     -804.145    -306.967     120.229
  C     -805.399    -306.519     120.621
  O     -805.866    -306.747     121.740
  N     -806.118    -305.832     119.676
  C     -805.738    -305.608     118.375
  O     -806.446    -305.041     117.556
  C     -804.407    -306.138     118.001
  C     -803.688    -306.785     118.927
  O     -800.659    -312.265     117.799
  O     -801.875    -310.769     116.110
  H     -804.629    -308.495     123.557
  H     -801.284    -312.898     117.400
  H     -807.020    -305.482     119.950
  H     -804.069    -305.974     116.998
  H     -802.722    -307.193     118.678
  H     -803.177    -307.036     122.078
  H     -805.198    -308.962     121.514
  H     -803.780    -310.154     119.971
  H     -801.478    -309.685     121.940
  H     -800.143    -309.625     119.798
  H     -800.846    -311.222     120.149
  P     -804.703    -312.285     121.288
  C     -803.763    -314.450     122.424
  O     -804.716    -313.400     122.428
  O     -804.138    -313.020     119.982
  O     -805.980    -311.523     121.063
  H     -803.173    -313.156     120.009
  H     -802.788    -314.077     122.057
  H     -804.105    -315.258     121.781
  H     -803.642    -314.819     123.433
  H     -797.847    -309.922     116.208
  H     -799.213    -310.413     115.235
  H     -798.505    -311.532     116.375

 3  4  5  6  7  8  9  10  11  12  13  23  28  29  30  31  32 0
 6-311+G(2d,p)
 ****
 33  34 0
 6-311+G(2d,p)
 ****
 1  2  14  15  16  17  18  19  20  21  22  24  25  26 0
 3-21G
 ****
 27  35  36  37  38  39  40  41  42  43  44  45 0
 3-21G
 ****


