%nproc=1
%NoSave
%Mem=1900MB
#P OB98/GEN NMR

erre ene a

0 1
  C     -417.713     602.564    1051.270
  O     -417.876     603.843    1050.636
  P     -417.929     605.228    1051.443
  C     -416.194     606.747    1050.260
  O     -416.470     605.904    1051.374
  C     -415.205     606.079    1049.304
  O     -415.824     604.935    1048.664
  C     -414.734     606.942    1048.142
  O     -413.816     607.935    1048.552
  C     -414.143     605.889    1047.209
  O     -412.792     605.570    1047.562
  C     -415.057     604.673    1047.465
  N     -415.925     604.369    1046.337
  C     -415.360     603.649    1045.287
  O     -414.162     603.369    1045.292
  N     -416.167     603.273    1044.239
  C     -417.399     603.681    1044.200
  N     -418.158     603.264    1043.146
  C     -417.997     604.560    1045.229
  C     -417.216     604.858    1046.260
  O     -418.462     605.100    1052.832
  O     -418.845     606.196    1050.564
  H     -419.258     606.868    1051.136
  H     -412.479     604.901    1046.927
  H     -419.015     604.904    1045.134
  H     -417.572     605.484    1047.063
  H     -414.452     603.787    1047.697
  H     -414.134     606.226    1046.164
  H     -415.604     607.408    1047.660
  H     -414.349     605.723    1049.892
  H     -417.722     602.655    1042.466
  H     -415.756     607.678    1050.627
  H     -419.131     603.503    1043.034
  H     -417.135     606.987    1049.745
  P     -414.409     609.398    1048.854
  C     -413.458     609.359    1051.264
  O     -414.588     609.539    1050.439
  O     -415.913     609.314    1048.308
  O     -413.663     610.514    1048.206
  H     -416.158     610.147    1047.877
  H     -413.604     609.935    1052.188
  H     -412.543     609.707    1050.774
  H     -413.357     608.308    1051.524
  H     -417.708     601.795    1050.526
  H     -418.522     602.397    1051.950
  H     -416.787     602.547    1051.806

 3  4  5  6  7  8  9  10  11  12  13  24  27  28  29  30  32 0
 6-311+G(2d,p)
 ****
 34  35 0
 6-311+G(2d,p)
 ****
 1  2  14  15  16  17  18  19  20  21  22  23  25  26 0
 3-21G
 ****
 31  33  36  37  38  39  40  41  42  43  44  45  46 0
 3-21G
 ****


