%nproc=1
%NoSave
%Mem=1900MB
#P OB98/GEN NMR

erre ene a

0 1
  C      -44.311      73.808      83.985
  O      -45.503      74.308      84.590
  P      -46.469      75.275      83.751
  C      -46.021      77.634      84.716
  O      -46.904      76.517      84.668
  C      -46.611      78.729      85.608
  O      -46.338      78.478      87.008
  C      -46.005      80.105      85.338
  O      -46.331      80.712      84.104
  C      -46.355      80.866      86.607
  O      -47.683      81.384      86.558
  C      -46.246      79.753      87.674
  N      -45.015      79.851      88.468
  C      -44.728      81.104      89.003
  O      -45.428      82.095      88.805
  N      -43.584      81.188      89.751
  C      -42.702      80.167      89.980
  O      -41.679      80.305      90.642
  C      -43.046      78.874      89.370
  C      -44.168      78.778      88.651
  O      -47.584      74.603      83.023
  O      -45.456      75.960      82.706
  H      -47.722      82.013      85.809
  H      -45.910      76.010      81.842
  H      -43.366      82.082      90.155
  H      -42.365      78.046      89.526
  H      -44.438      77.831      88.193
  H      -47.090      79.805      88.372
  H      -45.685      81.718      86.763
  H      -44.912      79.992      85.329
  H      -47.694      78.738      85.480
  H      -45.854      78.017      83.706
  H      -45.044      77.303      85.084
  P      -45.296      81.598      83.262
  C      -46.703      83.683      82.628
  O      -46.124      82.470      82.199
  O      -44.056      80.922      82.773
  O      -44.876      82.713      84.340
  H      -43.945      82.963      84.180
  H      -47.239      84.132      81.783
  H      -45.930      84.377      82.960
  H      -47.419      83.500      83.436
  H      -43.792      73.184      84.682
  H      -43.683      74.627      83.703
  H      -44.564      73.238      83.116

 3  4  5  6  7  8  9  10  11  12  13  23  28  29  30  31  32 0
 6-311+G(2d,p)
 ****
 33  34 0
 6-311+G(2d,p)
 ****
 1  2  14  15  16  17  18  19  20  21  22  24  25  26  27 0
 3-21G
 ****
 35  36  37  38  39  40  41  42  43  44  45 0
 3-21G
 ****


