%nproc=1
%NoSave
%Mem=1900MB
#P OB98/GEN NMR

erre ene a

0 1
  C      505.977      64.722     607.317
  O      505.486      65.891     606.640
  P      504.232      66.654     607.276
  C      505.420      68.942     607.682
  O      504.793      67.805     608.255
  C      505.238      70.159     608.590
  O      503.843      70.551     608.684
  C      505.692      69.948     610.013
  O      507.101      70.103     610.161
  C      504.963      71.079     610.740
  O      505.674      72.314     610.552
  C      503.627      71.117     610.007
  N      499.138      71.404     612.450
  C      499.954      72.352     611.943
  N      501.142      72.204     611.334
  C      501.461      70.903     611.229
  C      500.724      69.816     611.691
  C      499.505      70.108     612.322
  N      498.675      69.133     612.829
  N      501.370      68.637     611.414
  C      502.471      68.989     610.784
  N      502.577      70.356     610.657
  O      503.620      65.582     608.295
  O      503.222      67.109     606.276
  H      505.212      72.993     611.075
  H      502.648      65.674     608.333
  H      499.614      73.378     612.059
  H      503.229      68.300     610.412
  H      503.252      72.136     609.877
  H      504.896      70.902     611.818
  H      505.363      68.968     610.398
  H      505.799      71.006     608.148
  H      505.012      69.144     606.691
  H      497.799      69.420     613.245
  H      498.932      68.174     612.726
  H      506.483      68.728     607.541
  P      507.877      69.079     611.110
  C      509.436      68.073     609.299
  O      508.355      67.866     610.167
  O      506.691      68.450     611.995
  O      508.937      69.697     611.947
  H      507.028      68.197     612.875
  H      509.811      67.100     608.962
  H      510.251      68.608     609.803
  H      509.117      68.635     608.416
  H      506.811      64.322     606.779
  H      505.201      63.987     607.369
  H      506.285      64.986     608.307

 3  4  5  6  7  8  9  10  11  12  22  25  29  30  31  32 0
 6-311+G(2d,p)
 ****
 33  36  37 0
 6-311+G(2d,p)
 ****
 1  2  13  14  15  16  17  18  19  20  21  23  24  26 0
 3-21G
 ****
 27  28  34  35  38  39  40  41  42  43  44  45  46  47  48 0
 3-21G
 ****


