%nproc=1
%NoSave
%Mem=1900MB
#P OB98/GEN NMR

erre ene a

0 1
  C     -185.449     682.278     135.813
  O     -186.407     681.416     135.234
  H     -185.967     683.039     136.407
  H     -184.865     682.783     135.040
  H     -184.783     681.713     136.473
  P     -185.920     680.308     134.192
  C     -185.680     682.045     132.298
  O     -185.019     681.071     133.105
  C     -184.712     682.683     131.307
  O     -184.310     681.673     130.340
  C     -185.304     683.872     130.546
  O     -184.276     684.860     130.366
  C     -185.686     683.255     129.212
  O     -185.754     684.236     128.187
  C     -184.595     682.188     129.024
  N     -185.051     681.139     128.106
  C     -184.716     681.301     126.759
  O     -184.061     682.282     126.389
  N     -185.181     680.384     125.847
  C     -185.967     679.437     126.232
  N     -186.419     678.578     125.272
  C     -186.369     679.233     127.642
  C     -185.879     680.117     128.517
  O     -186.986     679.432     133.616
  O     -184.845     679.455     135.019
  H     -185.833     683.786     127.325
  H     -185.288     678.706     135.464
  H     -187.025     678.429     127.918
  H     -186.128     680.060     129.572
  H     -183.678     682.638     128.628
  H     -186.675     682.780     129.298
  H     -186.162     684.324     131.050
  H     -183.799     682.982     131.849
  H     -186.142     678.774     124.318
  H     -186.081     682.821     132.976
  H     -187.075     677.830     125.449
  H     -186.516     681.577     131.765
  P     -184.448     686.335     130.972
  C     -184.589     687.547     128.722
  O     -185.276     687.241     129.937
  O     -183.178     686.955     131.463
  O     -185.481     686.129     132.186
  H     -185.299     686.791     132.879
  H     -185.216     688.151     128.100
  H     -184.347     686.639     128.210
  H     -183.689     688.081     128.946

 6  7  8  9  10  11  12  13  14  15  16  26  30  31  32  33  35 0
 6-311+G(2d,p)
 ****
 37  38 0
 6-311+G(2d,p)
 ****
 1  2  3  4  5  17  18  19  20  21  22  23  24  25 0
 3-21G
 ****
 27  28  29  34  36  39  40  41  42  43  44  45  46 0
 3-21G
 ****


