%nproc=1
%NoSave
%Mem=1900MB
#P OB98/GEN NMR

erre ene a

0 1
  C     -232.070    -142.845      57.031
  O     -232.366    -144.234      57.204
  P     -231.672    -144.977      58.446
  C     -229.414    -146.196      58.821
  O     -230.427    -145.830      57.893
  C     -228.484    -147.267      58.242
  O     -229.204    -148.514      58.018
  C     -227.852    -146.875      56.902
  O     -226.542    -147.456      56.853
  C     -228.734    -147.574      55.887
  O     -228.081    -147.712      54.629
  C     -229.026    -148.876      56.631
  N     -231.104    -151.055      52.508
  C     -229.902    -150.472      52.714
  N     -229.432    -149.894      53.840
  C     -230.335    -149.998      54.836
  C     -231.600    -150.555      54.773
  C     -231.984    -151.103      53.537
  N     -233.218    -151.675      53.317
  N     -232.245    -150.430      55.986
  C     -231.386    -149.804      56.763
  N     -230.205    -149.549      56.124
  O     -232.746    -146.094      58.851
  O     -231.365    -144.073      59.595
  H     -228.719    -148.103      53.994
  H     -233.180    -145.849      59.689
  H     -229.231    -150.463      51.858
  H     -231.566    -149.507      57.786
  H     -228.195    -149.592      56.568
  H     -229.656    -146.996      55.734
  H     -227.786    -145.796      56.729
  H     -227.695    -147.472      58.975
  H     -229.871    -146.576      59.740
  H     -233.425    -152.019      52.391
  H     -233.898    -151.674      54.061
  H     -228.857    -145.297      59.113
  P     -225.343    -146.486      56.417
  C     -224.234    -145.848      54.159
  O     -225.174    -146.662      54.834
  O     -224.042    -147.196      57.021
  O     -225.490    -145.079      56.902
  H     -223.341    -146.536      57.176
  H     -223.718    -146.454      53.409
  H     -223.488    -145.424      54.840
  H     -224.761    -145.036      53.654
  H     -232.592    -142.473      56.174
  H     -231.017    -142.720      56.889
  H     -232.380    -142.303      57.900

 3  4  5  6  7  8  9  10  11  12  22  25  29  30  31  32 0
 6-311+G(2d,p)
 ****
 33  36  37 0
 6-311+G(2d,p)
 ****
 1  2  13  14  15  16  17  18  19  20  21  23  24  26 0
 3-21G
 ****
 27  28  34  35  38  39  40  41  42  43  44  45  46  47  48 0
 3-21G
 ****


