%nproc=1
%NoSave
%Mem=1900MB
#P OB98/GEN NMR

erre ene a

0 1
  C      -97.554    -978.936     223.000
  O      -96.166    -978.830     223.297
  P      -95.058    -979.012     222.142
  C      -94.566    -976.490     221.836
  O      -95.142    -977.675     221.272
  C      -93.424    -976.008     220.949
  O      -93.918    -975.730     219.627
  C      -92.769    -974.718     221.424
  O      -91.906    -974.957     222.526
  C      -92.084    -974.248     220.147
  O      -90.846    -974.981     219.954
  C      -93.104    -974.674     219.072
  N      -93.937    -973.555     218.619
  C      -93.281    -972.505     217.971
  O      -92.068    -972.523     217.795
  N      -94.038    -971.440     217.510
  C      -95.328    -971.428     217.691
  N      -96.024    -970.391     217.165
  C      -96.041    -972.497     218.421
  C      -95.306    -973.519     218.845
  O      -95.197    -980.282     221.352
  O      -93.655    -978.863     222.900
  H      -90.277    -974.758     220.725
  H      -93.313    -979.716     223.262
  H      -97.118    -972.430     218.548
  H      -95.761    -974.348     219.359
  H      -92.594    -975.088     218.198
  H      -91.844    -973.186     220.143
  H      -93.531    -973.985     221.727
  H      -92.671    -976.809     220.879
  H      -95.509    -969.785     216.521
  H      -94.172    -976.750     222.831
  H      -97.021    -970.447     217.011
  H      -95.335    -975.733     221.942
  P      -91.954    -973.909     223.746
  C      -93.301    -975.436     225.336
  O      -93.282    -974.252     224.586
  O      -92.271    -972.523     223.028
  O      -90.690    -973.849     224.561
  H      -91.455    -971.983     222.929
  H      -94.158    -975.411     226.029
  H      -92.383    -975.546     225.938
  H      -93.404    -976.312     224.678
  H      -98.123    -978.785     223.894
  H      -97.761    -979.909     222.606
  H      -97.822    -978.194     222.277

 3  4  5  6  7  8  9  10  11  12  13  23  27  28  29  30  32 0
 6-311+G(2d,p)
 ****
 34  35 0
 6-311+G(2d,p)
 ****
 1  2  14  15  16  17  18  19  20  21  22  24  25  26 0
 3-21G
 ****
 31  33  36  37  38  39  40  41  42  43  44  45  46 0
 3-21G
 ****


