%nproc=1
%NoSave
%Mem=1900MB
#P OB98/GEN NMR

erre ene a

0 1
  C      -82.557    -472.807    -203.629
  O      -81.782    -471.851    -204.326
  H      -83.609    -472.651    -203.881
  H      -82.433    -472.688    -202.551
  H      -82.273    -473.819    -203.929
  P      -80.197    -471.839    -204.095
  C      -78.709    -470.797    -202.259
  O      -79.970    -471.373    -202.576
  C      -78.491    -470.801    -200.748
  O      -79.336    -469.820    -200.116
  C      -78.801    -472.134    -200.072
  O      -77.707    -473.029    -200.208
  C      -79.005    -471.680    -198.636
  O      -77.726    -471.421    -198.025
  C      -79.768    -470.356    -198.832
  N      -84.026    -469.774    -196.131
  C      -82.706    -469.674    -195.736
  N      -82.489    -469.413    -194.429
  N      -81.691    -469.828    -196.545
  C      -82.055    -470.158    -197.808
  C      -83.326    -470.304    -198.313
  C      -84.444    -470.063    -197.423
  O      -85.628    -470.118    -197.739
  N      -83.303    -470.733    -199.617
  C      -82.018    -470.797    -199.913
  N      -81.217    -470.465    -198.842
  O      -79.393    -471.063    -205.094
  O      -79.792    -473.387    -204.067
  H      -77.232    -472.263    -198.025
  H      -79.537    -473.699    -204.954
  H      -84.767    -469.654    -195.462
  H      -81.614    -471.071    -200.880
  H      -79.510    -469.617    -198.066
  H      -79.512    -472.423    -198.021
  H      -83.219    -469.430    -193.733
  H      -79.734    -472.567    -200.444
  H      -81.529    -469.393    -194.111
  H      -77.454    -470.498    -200.558
  H      -78.708    -469.771    -202.643
  H      -77.903    -471.354    -202.748
  P      -77.930    -474.619    -200.291
  C      -78.827    -476.384    -198.624
  O      -78.323    -475.071    -198.803
  O      -76.798    -475.380    -200.896
  O      -79.320    -474.783    -201.067
  H      -79.216    -474.770    -202.048
  H      -79.045    -476.544    -197.589
  H      -78.096    -477.094    -198.949
  H      -79.721    -476.504    -199.199

 6  7  8  9  10  11  12  13  14  15  26  29  33  34 0
 6-311+G(2d,p)
 ****
 36  38  39  40  41 0
 6-311+G(2d,p)
 ****
 1  2  3  4  5  16  17  18  19  20  21  22  23  24  25 0
 3-21G
 ****
 27  28  30  31  32  35  37  42  43  44  45  46  47 0
 3-21G
 ****
 48  49 0
 3-21G
 ****


