%nproc=1
%NoSave
%Mem=1900MB
#P OB98/GEN NMR

erre ene a

0 1
  C      -35.384      44.615     -16.419
  O      -34.362      44.558     -17.394
  H      -35.731      43.600     -16.214
  H      -36.225      45.207     -16.791
  H      -35.000      45.052     -15.493
  P      -33.733      45.961     -17.854
  C      -34.921      46.071     -20.156
  O      -34.802      46.622     -18.853
  C      -35.374      47.140     -21.146
  O      -36.750      47.510     -20.903
  C      -34.562      48.428     -21.099
  O      -33.369      48.310     -21.856
  C      -35.545      49.422     -21.701
  O      -35.551      49.351     -23.141
  C      -36.883      48.939     -21.124
  N      -40.730      51.005     -18.593
  C      -40.709      50.366     -19.814
  N      -41.881      50.317     -20.486
  N      -39.638      49.833     -20.338
  C      -38.535      49.988     -19.568
  C      -38.431      50.585     -18.333
  C      -39.633      51.144     -17.753
  O      -39.731      51.665     -16.646
  N      -37.146      50.528     -17.861
  C      -36.467      49.933     -18.823
  N      -37.264      49.601     -19.888
  O      -32.537      45.533     -18.830
  O      -33.253      46.839     -16.750
  H      -36.029      50.120     -23.497
  H      -31.827      46.200     -18.775
  H      -41.591      51.380     -18.235
  H      -35.408      49.722     -18.796
  H      -37.711      49.083     -21.827
  H      -35.289      50.450     -21.441
  H      -42.625      50.976     -20.302
  H      -34.346      48.713     -20.062
  H      -41.869      49.870     -21.393
  H      -35.332      46.697     -22.150
  H      -35.660      45.264     -20.136
  H      -33.953      45.661     -20.464
  P      -32.055      49.044     -21.296
  C      -31.689      50.744     -23.231
  O      -32.087      50.536     -21.882
  O      -30.868      48.353     -22.118
  O      -31.859      48.932     -19.822
  H      -30.015      48.520     -21.675
  H      -31.765      51.784     -23.469
  H      -32.326      50.182     -23.881
  H      -30.676      50.423     -23.358

 6  7  8  9  10  11  12  13  14  15  26  29  33  34 0
 6-311+G(2d,p)
 ****
 36  38  39  40  41 0
 6-311+G(2d,p)
 ****
 1  2  3  4  5  16  17  18  19  20  21  22  23  24  25 0
 3-21G
 ****
 27  28  30  31  32  35  37  42  43  44  45  46  47 0
 3-21G
 ****
 48  49 0
 3-21G
 ****


