%nproc=1
%NoSave
%Mem=1900MB
#P OB98/GEN NMR

erre ene a

0 1
  C     1384.535    -333.162     538.507
  O     1385.030    -332.549     539.705
  P     1386.186    -333.351     540.486
  C     1384.700    -334.133     542.482
  O     1385.815    -333.350     542.045
  C     1384.838    -334.482     543.976
  O     1385.949    -335.357     544.201
  C     1385.065    -333.276     544.863
  O     1383.859    -332.543     545.114
  C     1385.606    -333.934     546.125
  O     1384.481    -334.401     546.931
  C     1386.395    -335.117     545.583
  N     1390.833    -336.372     547.681
  C     1389.565    -336.820     547.965
  N     1389.441    -337.751     548.929
  N     1388.476    -336.387     547.355
  C     1388.723    -335.476     546.401
  C     1389.955    -334.941     546.008
  C     1391.145    -335.426     546.718
  O     1392.275    -335.029     546.529
  N     1389.836    -334.063     544.975
  C     1388.534    -334.052     544.722
  N     1387.825    -334.906     545.542
  O     1387.443    -332.335     540.430
  O     1386.510    -334.676     539.898
  H     1383.939    -334.966     546.331
  H     1388.271    -332.818     540.462
  H     1391.624    -336.722     548.182
  H     1388.051    -333.480     543.934
  H     1386.202    -336.048     546.145
  H     1386.183    -333.239     546.759
  H     1390.224    -338.180     549.381
  H     1385.856    -332.616     544.430
  H     1388.528    -338.128     549.143
  H     1383.917    -334.980     544.283
  H     1384.668    -335.084     541.893
  H     1383.782    -333.589     542.274
  P     1383.342    -331.580     543.964
  C     1383.767    -329.530     545.485
  O     1382.849    -330.232     544.700
  O     1381.970    -332.276     543.515
  O     1384.270    -331.396     542.818
  H     1381.771    -332.080     542.572
  H     1384.740    -329.459     544.980
  H     1383.898    -330.033     546.457
  H     1383.390    -328.518     545.659
  H     1383.776    -332.543     538.077
  H     1384.123    -334.121     538.741
  H     1385.337    -333.279     537.809

 3  4  5  6  7  8  9  10  11  12  23  26  30  31  33  0
 6-311+G(2d,p)
 ****
 35  36  37  38 0
 6-311+G(2d,p)
 ****
 1  2  13  14  15  16  17  18  19  20  21  22  24  25  27  28  29 0
 3-21G
 ****
 32  34  39  40  41  42  43  44  45  46  47  48  49 0
 3-21G
 ****


