%nproc=1
%NoSave
%Mem=1900MB
#P OB98/GEN NMR

erre ene a

0 1
  C      825.914    -389.572     994.615
  O      824.850    -390.457     994.927
  H      826.737    -390.161     994.183
  H      826.274    -389.084     995.526
  H      825.589    -388.829     993.886
  P      823.549    -389.796     995.598
  C      822.352    -390.104     993.316
  O      822.298    -390.293     994.729
  C      821.789    -391.328     992.596
  O      822.780    -392.381     992.526
  C      820.553    -391.936     993.256
  O      819.377    -391.243     992.865
  C      820.588    -393.365     992.712
  O      820.055    -393.432     991.372
  C      822.107    -393.655     992.711
  N      823.051    -398.120     994.872
  C      822.628    -397.826     993.604
  N      822.372    -398.872     992.782
  N      822.454    -396.609     993.143
  C      822.731    -395.661     994.076
  C      823.171    -395.817     995.375
  C      823.374    -397.181     995.840
  O      823.808    -397.504     996.937
  N      823.346    -394.610     995.999
  C      822.976    -393.721     995.092
  N      822.575    -394.307     993.917
  O      823.678    -388.245     995.207
  O      823.430    -389.984     997.068
  H      820.554    -392.831     990.801
  H      823.269    -387.704     995.911
  H      823.172    -399.081     995.148
  H      822.985    -392.647     995.249
  H      822.390    -394.300     991.873
  H      820.005    -394.032     993.321
  H      822.150    -399.792     993.161
  H      820.661    -391.967     994.347
  H      822.028    -398.666     991.851
  H      821.570    -391.032     991.555
  H      823.395    -389.966     993.022
  H      821.775    -389.216     993.052
  P      818.378    -390.766     994.032
  C      819.601    -388.567     994.700
  O      818.454    -389.172     994.093
  O      819.132    -391.219     995.376
  O      817.001    -391.344     993.948
  H      818.504    -391.228     996.125
  H      819.504    -387.502     994.663
  H      820.483    -388.863     994.171
  H      819.674    -388.884     995.719

 6  7  8  9  10  11  12  13  14  15  26  29  33  34 0
 6-311+G(2d,p)
 ****
 36  38  39  40  41 0
 6-311+G(2d,p)
 ****
 1  2  3  4  5  16  17  18  19  20  21  22  23  24  25 0
 3-21G
 ****
 27  28  30  31  32  35  37  42  43  44  45  46  47 0
 3-21G
 ****
 48  49 0
 3-21G
 ****


