%nproc=1
%NoSave
%Mem=1900MB
#P OB98/GEN NMR

erre ene a

0 1
  C      855.362     958.699     313.732
  O      853.977     958.964     313.699
  H      855.516     957.664     314.045
  H      855.850     959.359     314.452
  H      855.810     958.839     312.742
  P      853.505     960.351     313.038
  C      852.824     959.005     310.919
  O      853.519     960.126     311.450
  C      852.598     959.190     309.422
  O      851.698     960.320     309.228
  C      853.875     959.482     308.621
  O      853.764     958.854     307.346
  C      853.827     960.992     308.436
  O      854.583     961.459     307.329
  C      852.323     961.220     308.279
  N      851.930     962.601     308.535
  C      851.750     963.423     307.426
  O      851.801     963.047     306.255
  N      851.487     964.738     307.703
  C      851.415     965.300     308.945
  O      851.204     966.496     309.133
  C      851.628     964.384     310.076
  C      851.878     963.098     309.820
  O      854.768     961.309     313.292
  O      852.234     960.917     313.576
  H      854.675     961.767     314.144
  H      854.151     961.120     306.517
  H      851.349     965.344     306.912
  H      851.593     964.802     311.075
  H      852.066     962.395     310.629
  H      851.991     960.914     307.282
  H      854.199     961.488     309.343
  H      854.798     959.155     309.118
  H      852.084     958.305     309.028
  H      851.858     958.912     311.418
  H      853.415     958.097     311.105
  P      855.010     957.965     306.856
  C      853.789     956.221     308.405
  O      854.999     956.668     307.814
  O      856.240     958.829     307.375
  O      854.993     957.687     305.389
  H      856.060     959.281     308.219
  H      853.982     955.354     309.002
  H      853.086     955.975     307.637
  H      853.386     956.996     309.022

 6  7  8  9  10  11  12  13  14  15  16  27  31  32  33  34  35 0
 6-311+G(2d,p)
 ****
 36  37 0
 6-311+G(2d,p)
 ****
 1  2  3  4  5  17  18  19  20  21  22  23  24  25 0
 3-21G
 ****
 26  28  29  30  38  39  40  41  42  43  44  45 0
 3-21G
 ****


