%nproc=1
%NoSave
%Mem=1900MB
#P OB98/GEN NMR

erre ene a

0 1
  C      319.186      24.109    -897.860
  O      318.000      23.832    -898.570
  H      320.027      23.581    -898.300
  H      319.381      25.187    -897.900
  H      319.071      23.819    -896.810
  P      317.551      22.295    -898.660
  C      315.314      22.766    -897.440
  O      316.531      22.033    -897.450
  C      314.291      22.078    -896.530
  O      313.783      20.910    -897.220
  C      314.848      21.624    -895.170
  O      314.098      22.217    -894.110
  C      314.600      20.116    -895.150
  O      314.164      19.642    -893.870
  C      313.536      19.913    -896.220
  N      312.800      14.970    -895.220
  C      312.294      16.090    -894.640
  N      312.444      17.369    -895.020
  C      313.189      17.450    -896.150
  C      313.745      16.404    -896.860
  C      313.534      15.113    -896.340
  N      314.090      13.979    -896.910
  N      314.439      16.879    -897.960
  C      314.343      18.186    -897.870
  N      313.610      18.583    -896.780
  O      318.872      21.504    -898.220
  O      317.061      21.850    -900.000
  H      313.392      20.184    -893.620
  H      319.049      20.777    -898.850
  H      311.699      15.929    -893.750
  H      314.821      18.901    -898.540
  H      312.522      20.069    -895.830
  H      315.531      19.602    -895.410
  H      315.915      21.846    -895.060
  H      313.446      22.762    -896.390
  H      314.908      22.815    -898.460
  H      313.982      13.112    -896.400
  H      314.729      14.089    -897.680
  H      315.513      23.786    -897.100
  P      314.934      23.095    -893.040
  C      313.423      25.204    -893.300
  O      314.724      24.644    -893.430
  O      316.456      22.816    -893.460
  O      314.667      22.735    -891.620
  H      317.041      22.932    -892.690
  H      313.446      26.232    -893.595
  H      313.104      25.132    -892.281
  H      312.740      24.669    -893.926

 6  7  8  9  10  11  12  13  14  15  25  28  32  33  34  35 0
 6-311+G(2d,p)
 ****
 36  39  40 0
 6-311+G(2d,p)
 ****
 1  2  3  4  5  16  17  18  19  20  21  22  23  24 0
 3-21G
 ****
 26  27  29  30  31  37  38  41  42  43  44  45  46  47  48 0
 3-21G
 ****


