%nproc=1
%NoSave
%Mem=1900MB
#P OB98/GEN NMR

erre ene a

0 1
  C     -159.513      31.749    -519.952
  O     -160.878      31.403    -520.211
  P     -161.153      30.266    -521.296
  C     -162.741      29.146    -519.578
  O     -162.579      29.629    -520.913
  C     -163.742      28.001    -519.542
  O     -163.367      27.005    -520.503
  C     -163.835      27.275    -518.205
  O     -164.652      27.975    -517.279
  C     -164.492      25.965    -518.630
  O     -165.913      26.141    -518.728
  C     -163.863      25.721    -520.025
  N     -162.445      20.976    -521.073
  C     -163.671      21.583    -521.235
  N     -164.656      20.835    -521.791
  N     -163.913      22.817    -520.899
  C     -162.843      23.462    -520.396
  C     -161.562      22.968    -520.168
  C     -161.317      21.576    -520.508
  O     -160.274      20.964    -520.336
  N     -160.722      23.917    -519.655
  C     -161.467      25.005    -519.607
  N     -162.770      24.767    -520.012
  O     -160.104      29.110    -520.907
  O     -160.994      30.692    -522.727
  H     -166.274      26.109    -517.827
  H     -159.904      28.572    -521.690
  H     -162.311      20.018    -521.369
  H     -161.117      25.980    -519.281
  H     -164.624      25.381    -520.737
  H     -164.317      25.151    -517.906
  H     -164.487      19.915    -522.191
  H     -162.841      27.069    -517.801
  H     -165.547      21.280    -521.955
  H     -164.728      28.400    -519.834
  H     -163.106      29.963    -518.938
  H     -161.759      28.823    -519.195
  P     -164.233      27.849    -515.726
  C     -165.690      29.975    -515.363
  O     -165.361      28.668    -514.927
  O     -162.927      28.752    -515.621
  O     -163.983      26.445    -515.262
  H     -162.371      28.461    -514.878
  H     -165.650      30.056    -516.454
  H     -164.990      30.693    -514.926
  H     -166.698      30.219    -515.024
  H     -159.475      32.518    -519.209
  H     -159.057      32.101    -520.854
  H     -158.987      30.886    -519.599

 3  4  5  6  7  8  9  10  11  12  23  26  30  31  33  0
 6-311+G(2d,p)
 ****
 35  36  37  38 0
 6-311+G(2d,p)
 ****
 1  2  13  14  15  16  17  18  19  20  21  22  24  25  27  28  29 0
 3-21G
 ****
 32  34  39  40  41  42  43  44  45  46  47  48  49 0
 3-21G
 ****


