%nproc=1
%NoSave
%Mem=1900MB
#P OB98/GEN NMR

erre ene a

0 1
  C      109.546     181.508    -210.883
  O      110.446     180.542    -211.387
  H      109.971     182.502    -211.044
  H      109.391     181.360    -209.811
  H      108.591     181.441    -211.410
  P      110.056     179.003    -211.143
  C      107.787     178.744    -212.405
  O      108.448     179.014    -211.177
  C      106.870     177.536    -212.248
  O      107.644     176.321    -212.130
  C      105.983     177.571    -211.007
  O      104.862     178.427    -211.138
  C      105.573     176.110    -210.939
  O      104.590     175.837    -211.953
  C      106.914     175.415    -211.257
  N      107.701     175.110    -210.060
  C      107.215     174.089    -209.233
  O      106.178     173.493    -209.514
  N      107.901     173.790    -208.080
  C      108.987     174.435    -207.786
  N      109.621     174.096    -206.632
  C      109.541     175.507    -208.633
  C      108.856     175.789    -209.741
  O      110.371     178.782    -209.590
  O      110.697     178.011    -212.053
  H      104.893     176.289    -212.762
  H      110.026     177.903    -209.298
  H      110.443     176.025    -208.341
  H      109.203     176.564    -210.414
  H      106.752     174.484    -211.815
  H      105.130     175.829    -209.984
  H      106.560     177.817    -210.108
  H      106.269     177.453    -213.163
  H      109.184     173.399    -206.043
  H      108.547     178.543    -213.167
  H      110.382     174.637    -206.244
  H      107.196     179.611    -212.712
  P      104.189     178.970    -209.786
  C      105.045     181.381    -210.269
  O      104.995     180.288    -209.361
  O      104.639     177.893    -208.695
  O      102.700     179.123    -209.843
  H      103.944     177.766    -208.021
  H      105.617     182.176    -209.839
  H      104.051     181.724    -210.469
  H      105.504     181.065    -211.182

 6  7  8  9  10  11  12  13  14  15  16  26  30  31  32  33  35 0
 6-311+G(2d,p)
 ****
 37  38 0
 6-311+G(2d,p)
 ****
 1  2  3  4  5  17  18  19  20  21  22  23  24  25 0
 3-21G
 ****
 27  28  29  34  36  39  40  41  42  43  44  45  46 0
 3-21G
 ****


