%nproc=1
%NoSave
%Mem=1900MB
#P OB98/GEN NMR

erre ene a

0 1
  C       37.695     248.018    -242.489
  O       38.848     247.983    -243.308
  H       37.242     249.013    -242.562
  H       37.953     247.834    -241.443
  H       36.968     247.276    -242.825
  P       39.777     246.679    -243.251
  C       40.524     246.763    -245.729
  O       40.907     246.907    -244.365
  C       41.706     247.075    -246.640
  O       41.752     248.488    -246.931
  C       43.052     246.734    -246.015
  O       43.282     245.340    -246.046
  C       43.984     247.568    -246.873
  O       44.257     246.929    -248.127
  C       43.148     248.855    -247.076
  N       43.508     249.917    -246.146
  C       44.836     250.359    -246.201
  O       45.624     249.860    -247.004
  N       45.235     251.338    -245.325
  C       44.387     251.844    -244.485
  N       44.848     252.812    -243.648
  C       42.977     251.419    -244.404
  C       42.608     250.460    -245.255
  O       39.085     245.351    -243.338
  O       40.582     246.849    -241.878
  H       43.388     246.782    -248.547
  H       40.092     246.438    -241.142
  H       42.302     251.876    -243.694
  H       41.588     250.089    -245.261
  H       43.270     249.233    -248.099
  H       44.936     247.741    -246.375
  H       43.098     247.113    -244.992
  H       41.562     246.540    -247.590
  H       45.826     253.066    -243.734
  H       39.707     247.468    -245.909
  H       44.263     253.337    -243.018
  H       40.155     245.749    -245.922
  P       44.416     244.683    -245.116
  C       42.987     242.982    -243.800
  O       43.925     243.172    -244.858
  O       44.769     245.460    -243.894
  O       45.643     244.488    -246.127
  H       46.085     245.351    -246.329
  H       42.738     241.944    -243.726
  H       42.102     243.548    -244.002
  H       43.418     243.312    -242.878

 6  7  8  9  10  11  12  13  14  15  16  26  30  31  32  33  35 0
 6-311+G(2d,p)
 ****
 37  38 0
 6-311+G(2d,p)
 ****
 1  2  3  4  5  17  18  19  20  21  22  23  24  25 0
 3-21G
 ****
 27  28  29  34  36  39  40  41  42  43  44  45  46 0
 3-21G
 ****


