%nproc=1
%NoSave
%Mem=1900MB
#P OB98/GEN NMR

erre ene a

0 1
  C       94.818     -56.249     -14.793
  O       96.176     -55.822     -14.672
  P       96.702     -55.274     -13.263
  C       95.709     -52.895     -13.313
  O       95.667     -54.178     -12.710
  C       94.943     -51.863     -12.470
  O       95.295     -50.520     -12.900
  C       93.419     -52.010     -12.581
  O       92.767     -52.068     -11.312
  C       93.016     -50.857     -13.482
  O       91.661     -50.469     -13.314
  C       94.081     -49.797     -13.173
  N       94.240     -48.842     -14.273
  C       93.211     -47.927     -14.459
  O       92.171     -47.941     -13.801
  N       93.386     -47.023     -15.473
  C       94.430     -47.000     -16.349
  O       94.518     -46.200     -17.271
  C       95.458     -48.032     -16.144
  C       95.316     -48.891     -15.132
  O       98.137     -54.866     -13.219
  O       96.440     -56.516     -12.277
  H       91.504     -49.655     -13.842
  H       97.189     -56.568     -11.653
  H       92.656     -46.342     -15.608
  H       96.289     -48.058     -16.834
  H       96.050     -49.669     -14.966
  H       93.813     -49.223     -12.280
  H       93.133     -51.177     -14.525
  H       93.144     -52.956     -13.061
  H       95.264     -51.989     -11.431
  H       95.258     -52.944     -14.305
  H       96.753     -52.599     -13.467
  P       92.574     -53.403     -10.453
  C       90.349     -54.206     -11.511
  O       91.730     -54.445     -11.325
  O       92.086     -53.211      -9.057
  O       94.045     -54.039     -10.439
  H       94.227     -54.409      -9.555
  H       89.866     -55.147     -11.786
  H       90.210     -53.488     -12.325
  H       89.884     -53.823     -10.599
  H       94.637     -56.582     -15.793
  H       94.166     -55.432     -14.566
  H       94.635     -57.052     -14.111

 3  4  5  6  7  8  9  10  11  12  13  23  28  29  30  31  32 0
 6-311+G(2d,p)
 ****
 33  34 0
 6-311+G(2d,p)
 ****
 1  2  14  15  16  17  18  19  20  21  22  24  25  26  27 0
 3-21G
 ****
 35  36  37  38  39  40  41  42  43  44  45 0
 3-21G
 ****


