%nproc=1
%NoSave
%Mem=1900MB
#P OB98/GEN NMR

erre ene a

0 1
  C      -86.948      57.721     408.321
  O      -87.496      56.457     407.992
  H      -87.544      58.498     407.833
  H      -85.918      57.805     407.964
  H      -86.982      57.877     409.402
  P      -86.703      55.145     408.460
  C      -85.550      54.986     406.146
  O      -85.380      55.094     407.558
  C      -84.191      55.004     405.448
  O      -83.529      56.263     405.682
  C      -83.239      53.931     405.965
  O      -83.584      52.656     405.455
  C      -81.904      54.486     405.499
  O      -81.678      54.200     404.115
  C      -82.102      56.001     405.731
  N      -81.531      56.463     406.992
  C      -80.644      57.543     406.906
  O      -80.394      58.059     405.821
  N      -80.056      57.996     408.064
  C      -80.332      57.438     409.198
  N      -79.715      57.936     410.302
  C      -81.270      56.304     409.333
  C      -81.823      55.870     408.201
  O      -87.478      53.862     408.487
  O      -86.141      55.539     409.909
  H      -82.426      54.604     403.632
  H      -86.787      55.304     410.601
  H      -81.474      55.871     410.307
  H      -82.523      55.040     408.211
  H      -81.648      56.575     404.915
  H      -81.076      54.060     406.064
  H      -83.237      53.923     407.066
  H      -84.353      54.899     404.369
  H      -79.069      58.702     410.160
  H      -86.151      55.841     405.823
  H      -79.917      57.638     411.247
  H      -86.092      54.066     405.891
  P      -83.208      51.325     406.261
  C      -80.978      51.197     404.962
  O      -81.604      51.257     406.249
  O      -83.906      50.084     405.813
  O      -83.537      51.718     407.786
  H      -84.509      51.742     407.953
  H      -79.916      51.155     405.084
  H      -81.238      52.068     404.398
  H      -81.312      50.323     404.443

 6  7  8  9  10  11  12  13  14  15  16  26  30  31  32  33  35 0
 6-311+G(2d,p)
 ****
 37  38 0
 6-311+G(2d,p)
 ****
 1  2  3  4  5  17  18  19  20  21  22  23  24  25 0
 3-21G
 ****
 27  28  29  34  36  39  40  41  42  43  44  45  46 0
 3-21G
 ****


