%nproc=1
%NoSave
%Mem=1900MB
#P OB98/GEN NMR

erre ene a

0 1
  C       60.908     100.996     112.502
  O       62.199     101.509     112.240
  H       60.849      99.978     112.111
  H       60.151     101.610     112.005
  H       60.720     100.974     113.579
  P       62.500     102.998     112.757
  C       61.491     104.068     110.612
  O       61.438     103.953     112.029
  C       60.313     104.902     110.119
  O       59.070     104.264     110.497
  C       60.251     106.298     110.723
  O       61.160     107.193     110.109
  C       58.793     106.656     110.485
  O       58.586     107.157     109.159
  C       58.084     105.309     110.662
  N       54.382     107.167     113.644
  C       54.721     107.423     112.363
  N       55.717     106.874     111.634
  C       56.377     105.952     112.355
  C       56.143     105.582     113.667
  C       55.086     106.233     114.325
  N       54.755     105.992     115.637
  N       57.056     104.629     114.074
  C       57.823     104.422     113.023
  N       57.448     105.195     111.960
  O       63.887     103.355     112.042
  O       62.583     103.148     114.238
  H       57.652     106.972     108.939
  H       64.619     103.235     112.675
  H       54.122     108.175     111.858
  H       58.658     103.733     112.985
  H       57.308     105.145     109.905
  H       58.461     107.423     111.185
  H       60.430     106.250     111.805
  H       60.352     104.951     109.024
  H       61.438     103.070     110.166
  H       62.440     104.534     110.330
  H       54.031     106.544     116.065
  H       55.347     105.381     116.187
  P       61.776     108.366     111.013
  C       60.499     110.390     109.976
  O       60.679     109.530     111.094
  O       62.928     108.991     110.094
  O       62.302     107.919     112.335
  H       63.679     109.273     110.651
  H       59.734     111.105     110.196
  H       60.212     109.811     109.123
  H       61.416     110.901     109.768

 6  7  8  9  10  11  12  13  14  15  25  28  32  33  34  35 0
 6-311+G(2d,p)
 ****
 36  37  40 0
 6-311+G(2d,p)
 ****
 1  2  3  4  5  16  17  18  19  20  21  22  23  24 0
 3-21G
 ****
 26  27  29  30  31  38  39 41  42  43  44  45  46  47  48 0
 3-21G
 ****


