%nproc=1
%NoSave
%Mem=1900MB
#P OB98/GEN NMR

erre ene a

0 1
  C      131.492    -896.960     274.796
  O      131.917    -896.600     276.122
  P      131.506    -897.560     277.339
  C      133.010    -898.950     278.911
  O      132.771    -897.660     278.330
  C      134.403    -899.000     279.546
  O      135.458    -898.850     278.567
  C      134.638    -897.890     280.583
  O      133.924    -898.170     281.782
  C      136.164    -897.910     280.681
  O      136.591    -898.940     281.586
  C      136.590    -898.250     279.241
  N      137.099    -897.110     278.504
  C      138.473    -897.100     278.254
  O      139.194    -898.030     278.651
  N      139.015    -896.050     277.524
  C      138.238    -895.110     277.127
  N      138.821    -894.090     276.411
  C      136.781    -895.030     277.402
  C      136.289    -896.060     278.109
  O      130.863    -898.840     276.966
  O      130.488    -896.630     278.192
  H      135.969    -899.690     281.446
  H      129.829    -897.220     278.630
  H      136.184    -894.230     277.035
  H      135.236    -896.120     278.344
  H      137.364    -899.020     279.258
  H      136.551    -896.970     281.058
  H      134.297    -896.930     280.142
  H      134.503    -900.000     280.034
  H      139.834    -894.130     276.261
  H      132.937    -899.720     278.127
  H      138.296    -893.320     276.022
  H      132.222    -899.180     279.652
  P      132.826    -897.080     282.244
  C      130.357    -897.750     282.706
  O      131.712    -897.890     283.085
  O      132.060    -896.780     280.843
  O      133.344    -895.830     282.853
  H      131.755    -895.840     280.837
  H      129.780    -898.560     283.154
  H      130.237    -897.810     281.600
  H      129.953    -896.800     283.043
  H      131.841    -896.227     274.098
  H      130.423    -897.003     274.763
  H      131.896    -897.917     274.540

 3  4  5  6  7  8  9  10  11  12  13  23  27  28  29  30  32 0
 6-311+G(2d,p)
 ****
 34  35 0
 6-311+G(2d,p)
 ****
 1  2  14  15  16  17  18  19  20  21  22  24  25  26 0
 3-21G
 ****
 31  33  36  37  38  39  40  41  42  43  44  45  46 0
 3-21G
 ****


