%nproc=1
%NoSave
%Mem=1900MB
#P OB98/GEN NMR

erre ene a

0 1
  C     1443.765    2266.201    -897.570
  O     1443.431    2265.211    -896.620
  P     1443.154    2265.672    -895.110
  C     1441.645    2263.554    -894.760
  O     1442.737    2264.339    -894.320
  C     1442.029    2262.104    -894.890
  O     1442.572    2261.613    -893.640
  C     1440.898    2261.190    -895.240
  O     1440.530    2261.245    -896.630
  C     1441.430    2259.823    -894.830
  O     1442.220    2259.213    -895.870
  C     1442.344    2260.195    -893.630
  N     1441.782    2259.789    -892.330
  C     1442.005    2258.420    -892.010
  O     1442.611    2257.665    -892.760
  N     1441.460    2257.953    -890.830
  C     1440.794    2258.764    -890.060
  N     1440.301    2258.233    -888.900
  C     1440.537    2260.170    -890.390
  C     1441.053    2260.581    -891.520
  O     1441.744    2266.464    -895.230
  O     1444.241    2266.508    -894.500
  H     1441.605    2259.016    -896.590
  H     1441.670    2267.136    -894.520
  H     1439.937    2260.818    -889.700
  H     1440.898    2261.622    -891.860
  H     1443.339    2259.729    -893.750
  H     1440.660    2259.110    -894.550
  H     1440.004    2261.410    -894.620
  H     1442.826    2262.021    -895.640
  H     1440.484    2257.232    -888.720
  H     1441.327    2263.938    -895.800
  H     1439.795    2258.779    -888.210
  H     1440.798    2263.699    -894.070
  P     1439.091    2260.779    -897.090
  C     1439.671    2262.460    -898.910
  O     1438.956    2261.307    -898.580
  O     1438.137    2261.754    -896.290
  O     1438.742    2259.333    -896.860
  H     1437.197    2261.509    -896.390
  H     1439.629    2262.638    -900.000
  H     1440.712    2262.334    -898.640
  H     1439.250    2263.350    -898.440
  H     1443.919    2265.742    -898.524
  H     1444.661    2266.700    -897.265
  H     1442.968    2266.911    -897.640

 3  4  5  6  7  8  9  10  11  12  13  21  23  27  28  29  30  32 0
 6-311+G(2d,p)
 ****
 34  35 0
 6-311+G(2d,p)
 ****
 1  2  14  15  16  17  18  19  20  22  24  25  26 0
 3-21G
 ****
 31  33  36  37  38  39  40  41  42  43  44  45  46 0
 3-21G
 ****


