%nproc=1
%NoSave
%Mem=1900MB
#P OB98/GEN NMR

erre ene a

0 1
  C       85.401    -319.964      20.208
  O       86.353    -320.057      21.244
  H       84.432    -319.713      20.646
  H       85.317    -320.928      19.700
  H       85.671    -319.190      19.484
  P       87.907    -319.975      20.873
  C       87.537    -317.420      20.897
  O       88.188    -318.514      20.263
  C       88.115    -316.077      20.447
  O       87.369    -314.991      21.039
  C       89.565    -315.890      20.892
  O       90.538    -316.468      20.045
  C       89.689    -314.370      20.911
  O       90.022    -313.866      19.605
  C       88.286    -313.917      21.321
  N       88.614    -310.192      24.800
  C       88.862    -310.137      23.443
  N       89.306    -308.955      22.963
  N       88.701    -311.157      22.640
  C       88.343    -312.297      23.275
  C       88.085    -312.478      24.615
  C       88.211    -311.327      25.489
  O       88.012    -311.324      26.701
  N       87.742    -313.780      24.889
  C       87.869    -314.397      23.734
  N       88.203    -313.535      22.716
  O       88.036    -320.918      19.581
  O       88.849    -320.410      21.953
  H       90.283    -312.932      19.695
  H       88.941    -321.271      19.516
  H       88.728    -309.370      25.365
  H       87.699    -315.459      23.574
  H       87.956    -313.052      20.730
  H       90.483    -314.036      21.588
  H       89.557    -308.179      23.558
  H       89.698    -316.257      21.915
  H       89.747    -308.948      22.041
  H       88.010    -315.985      19.359
  H       87.682    -317.548      21.971
  H       86.462    -317.459      20.705
  P       91.935    -316.964      20.650
  C       91.606    -319.435      19.899
  O       91.780    -318.530      20.966
  O       91.958    -316.282      22.097
  O       93.137    -316.599      19.846
  H       92.469    -315.454      22.071
  H       91.520    -320.429      20.285
  H       92.449    -319.379      19.243
  H       90.717    -319.184      19.360

 6  7  8  9  10  11  12  13  14  15  26  29  33  34 0
 6-311+G(2d,p)
 ****
 36  38  39  40  41 0
 6-311+G(2d,p)
 ****
 1  2  3  4  5  16  17  18  19  20  21  22  23  24  25 0
 3-21G
 ****
 27  28  30  31  32  35  37  42  43  44  45  46  47 0
 3-21G
 ****
 48  49 0
 3-21G
 ****


