%nproc=1
%NoSave
%Mem=1900MB
#P OB98/GEN NMR

erre ene a

0 1
  C       38.713     -72.550     -31.910
  O       39.559     -71.877     -30.999
  H       38.224     -71.831     -32.573
  H       39.316     -73.232     -32.515
  H       37.959     -73.129     -31.369
  P       38.869     -70.795     -30.036
  C       39.175     -69.003     -31.898
  O       38.279     -69.671     -31.020
  C       38.737     -67.551     -32.054
  O       37.453     -67.488     -32.714
  C       38.560     -66.817     -30.730
  O       39.785     -66.334     -30.207
  C       37.655     -65.675     -31.160
  O       38.426     -64.677     -31.851
  C       36.704     -66.385     -32.136
  N       31.790     -65.452     -31.045
  C       32.706     -64.752     -31.748
  N       33.987     -65.079     -32.011
  C       34.294     -66.269     -31.473
  C       33.465     -67.099     -30.736
  C       32.153     -66.646     -30.520
  N       31.225     -67.341     -29.777
  N       34.145     -68.232     -30.332
  C       35.356     -68.092     -30.832
  N       35.505     -66.908     -31.502
  O       40.108     -70.054     -29.346
  O       37.885     -71.332     -29.051
  H       39.013     -65.149     -32.472
  H       39.807     -69.532     -28.578
  H       32.365     -63.802     -32.150
  H       36.158     -68.812     -30.729
  H       36.380     -65.735     -32.956
  H       37.171     -65.179     -30.315
  H       38.031     -67.435     -29.996
  H       39.466     -67.039     -32.695
  H       39.157     -69.501     -32.873
  H       30.364     -66.866     -29.555
  H       31.528     -68.154     -29.261
  H       40.188     -69.050     -31.488
  P       39.814     -65.912     -28.657
  C       39.595     -63.387     -29.230
  O       39.040     -64.510     -28.555
  O       41.343     -65.506     -28.426
  O       39.360     -66.977     -27.714
  H       41.623     -65.711     -27.513
  H       38.972     -62.532     -29.071
  H       39.655     -63.595     -30.278
  H       40.575     -63.190     -28.849

 6  7  8  9  10  11  12  13  14  15  25  28  32  33  34  35 0
 6-311+G(2d,p)
 ****
 36  39  40 0
 6-311+G(2d,p)
 ****
 1  2  3  4  5  16  17  18  19  20  21  22  23  24 0
 3-21G
 ****
 26  27  29  30  31  37  38  41  42  43  44  45  46  47 0
 3-21G
 ****
 48 0
 3-21G
 ****


