%nproc=1
%NoSave
%Mem=1900MB
#P OB98/GEN NMR

erre ene a

0 1
  C     -330.643    -468.784      97.933
  O     -329.786    -467.706      97.612
  H     -330.396    -469.136      98.940
  H     -330.487    -469.605      97.231
  H     -331.690    -468.468      97.917
  P     -330.022    -466.908      96.242
  C     -328.378    -468.321      94.837
  O     -329.729    -467.930      95.036
  C     -328.114    -468.639      93.360
  O     -328.837    -469.853      93.016
  C     -328.565    -467.532      92.403
  O     -327.631    -467.440      91.328
  C     -329.902    -468.037      91.884
  O     -330.220    -467.506      90.599
  C     -329.690    -469.549      91.888
  N     -333.508    -471.572      89.257
  C     -332.328    -470.989      88.822
  N     -332.150    -470.918      87.479
  N     -331.413    -470.514      89.625
  C     -331.712    -470.672      90.937
  C     -332.841    -471.235      91.496
  C     -333.861    -471.732      90.590
  O     -334.929    -472.246      90.923
  N     -332.792    -471.196      92.868
  C     -331.636    -470.614      93.137
  N     -330.949    -470.268      91.999
  O     -329.295    -465.603      96.137
  O     -331.604    -466.703      96.172
  H     -331.142    -467.766      90.399
  H     -331.850    -465.783      96.375
  H     -334.181    -471.911      88.595
  H     -331.250    -470.419      94.128
  H     -329.198    -469.904      90.974
  H     -330.697    -467.750      92.582
  H     -332.805    -471.285      86.808
  H     -328.649    -466.564      92.899
  H     -331.281    -470.522      87.139
  H     -327.046    -468.858      93.240
  H     -328.184    -469.212      95.450
  H     -327.714    -467.513      95.173
  P     -326.552    -466.254      91.329
  C     -328.008    -464.426      90.251
  O     -327.322    -464.846      91.424
  O     -325.511    -466.329      90.264
  O     -325.884    -466.385      92.786
  H     -324.938    -466.143      92.729
  H     -328.479    -463.483      90.432
  H     -328.750    -465.152      89.993
  H     -327.310    -464.327      89.446

 6  7  8  9  10  11  12  13  14  15  26  29  33  34 0
 6-311+G(2d,p)
 ****
 36  38  39  40  41 0
 6-311+G(2d,p)
 ****
 1  2  3  4  5  16  17  18  19  20  21  22  23  24  25 0
 3-21G
 ****
 27  28  30  31  32  35  37  42  43  44  45  46  47 0
 3-21G
 ****
 48  49 0
 3-21G
 ****


