%nproc=1
%NoSave
%Mem=1900MB
#P OB98/GEN NMR

erre ene a

0 1
  C     -899.150    -223.687     274.236
  O     -898.520    -222.485     274.639
  H     -900.000    -223.437     273.608
  H     -899.510    -224.239     275.109
  H     -898.460    -224.308     273.658
  P     -897.160    -222.567     275.497
  C     -895.660    -221.045     274.086
  O     -896.400    -221.172     275.278
  C     -894.760    -219.801     274.130
  O     -895.590    -218.619     274.231
  C     -893.790    -219.788     275.328
  O     -892.550    -219.216     274.905
  C     -894.470    -218.851     276.320
  O     -893.530    -218.232     277.190
  C     -895.180    -217.870     275.382
  N     -897.280    -213.443     276.609
  C     -896.150    -213.701     275.867
  N     -895.450    -212.653     275.400
  N     -895.720    -214.932     275.608
  C     -896.520    -215.894     276.115
  C     -897.670    -215.749     276.866
  C     -898.110    -214.398     277.159
  O     -899.110    -214.100     277.831
  N     -898.180    -216.976     277.226
  C     -897.370    -217.852     276.701
  N     -896.320    -217.243     276.028
  O     -896.330    -223.772     275.266
  O     -897.660    -222.471     277.018
  H     -892.790    -217.898     276.636
  H     -897.690    -223.368     277.426
  H     -897.550    -212.486     276.783
  H     -897.450    -218.927     276.778
  H     -894.520    -217.051     275.049
  H     -895.200    -219.422     276.922
  H     -895.720    -211.693     275.549
  H     -893.620    -220.786     275.748
  H     -894.620    -212.829     274.841
  H     -894.210    -219.717     273.178
  H     -896.360    -220.951     273.244
  H     -895.040    -221.944     273.936
  P     -891.260    -220.170     274.809
  C     -890.770    -219.292     272.425
  O     -890.260    -219.528     273.744
  O     -891.540    -221.627     274.643
  O     -890.510    -219.868     276.217
  H     -890.020    -220.666     276.466
  H     -890.001    -218.862     271.817
  H     -891.600    -218.619     272.479
  H     -891.089    -220.218     271.995

 6  7  8  9  10  11  12  13  14  15  26  29  33  34 0
 6-311+G(2d,p)
 ****
 36  38  39  40  41 0
 6-311+G(2d,p)
 ****
 1  2  3  4  5  16  17  18  19  20  21  22  23  24  25 0
 3-21G
 ****
 27  28  30  31  32  35  37  42  43  44  45  46  47 0
 3-21G
 ****
 48  49 0
 3-21G
 ****


