%nproc=1
%NoSave
%Mem=1900MB
#P OB98/GEN NMR

erre ene a

0 1
  C      -84.847      -8.696      56.761
  O      -85.378      -9.540      57.762
  H      -84.647      -9.299      55.870
  H      -83.907      -8.258      57.102
  H      -85.556      -7.908      56.499
  P      -85.894      -8.889      59.131
  C      -88.192      -7.717      59.054
  O      -87.499      -8.956      59.115
  C      -89.683      -7.943      58.783
  O      -89.818      -8.877      57.681
  C      -90.446      -8.517      59.980
  O      -91.752      -7.941      60.022
  C      -90.546      -9.995      59.658
  O      -91.668     -10.610      60.286
  C      -90.629      -9.979      58.133
  N      -92.049     -14.576      56.588
  C      -92.807     -13.515      57.042
  N      -94.141     -13.711      57.115
  N      -92.302     -12.363      57.399
  C      -90.956     -12.301      57.254
  C      -90.095     -13.279      56.815
  C      -90.666     -14.557      56.445
  O      -90.043     -15.537      56.050
  N      -88.795     -12.839      56.827
  C      -88.871     -11.600      57.272
  N      -90.159     -11.229      57.556
  O      -85.330      -7.538      59.440
  O      -85.499      -9.958      60.251
  H      -91.669     -10.317      61.223
  H      -84.730      -9.656      60.768
  H      -92.487     -15.444      56.338
  H      -88.030     -10.932      57.411
  H      -91.654      -9.828      57.772
  H      -89.639     -10.510      59.998
  H      -94.600     -14.564      56.834
  H      -89.933      -8.332      60.923
  H      -94.724     -12.939      57.416
  H      -90.123      -6.995      58.453
  H      -87.758      -7.121      58.245
  H      -88.059      -7.181      60.000
  P      -92.023      -6.697      60.999
  C      -91.229      -4.565      59.805
  O      -92.338      -5.399      60.108
  O      -91.007      -6.492      62.073
  O      -93.458      -7.046      61.627
  H      -93.484      -6.726      62.551
  H      -91.557      -3.738      59.211
  H      -90.498      -5.127      59.262
  H      -90.797      -4.202      60.714

 6  7  8  9  10  11  12  13  14  15  26  29  33  34 0
 6-311+G(2d,p)
 ****
 36  38  39  40  41 0
 6-311+G(2d,p)
 ****
 1  2  3  4  5  16  17  18  19  20  21  22  23  24  25 0
 3-21G
 ****
 27  28  30  31  32  35  37  42  43  44  45  46  47 0
 3-21G
 ****
 48  49 0
 3-21G
 ****


