%nproc=1
%NoSave
%Mem=1900MB
#P OB98/GEN NMR

erre ene a

0 1
  C      -88.758     324.225     -28.056
  O      -88.617     323.297     -29.137
  P      -87.138     322.970     -29.671
  C      -87.680     322.542     -32.229
  O      -87.220     322.057     -30.982
  C      -87.750     321.370     -33.228
  O      -86.478     320.688     -33.299
  C      -88.787     320.311     -32.855
  O      -90.080     320.643     -33.341
  C      -88.206     319.056     -33.472
  O      -88.452     319.031     -34.889
  C      -86.697     319.253     -33.181
  N      -86.175     318.798     -31.871
  C      -85.766     317.481     -31.711
  O      -85.815     316.623     -32.589
  N      -85.279     317.148     -30.469
  C      -84.990     318.021     -29.448
  O      -84.497     317.675     -28.383
  C      -85.298     319.428     -29.737
  C      -85.873     319.743     -30.895
  O      -86.540     321.981     -28.565
  O      -86.269     324.180     -29.875
  H      -88.166     318.148     -35.207
  H      -85.776     322.401     -28.110
  H      -85.043     316.183     -30.306
  H      -85.050     320.160     -28.976
  H      -86.102     320.789     -31.107
  H      -86.085     318.766     -33.956
  H      -88.677     318.151     -33.061
  H      -88.809     320.175     -31.765
  H      -87.980     321.769     -34.226
  H      -87.016     323.313     -32.616
  H      -88.666     322.990     -32.110
  P      -91.157     321.323     -32.372
  C      -93.466     320.539     -33.192
  O      -92.479     321.547     -33.269
  O      -90.690     322.511     -31.592
  O      -91.599     320.109     -31.397
  H      -91.095     320.130     -30.557
  H      -94.351     320.884     -33.733
  H      -93.714     320.329     -32.153
  H      -93.106     319.625     -33.676
  H      -89.795     324.338     -27.816
  H      -88.354     325.173     -28.345
  H      -88.231     323.858     -27.200

 3  4  5  6  7  8  9  10  11  12  13  23  28  29  30  31  32 0
 6-311+G(2d,p)
 ****
 33  34 0
 6-311+G(2d,p)
 ****
 1  2  14  15  16  17  18  19  20  21  22  24  25  26  27 0
 3-21G
 ****
 35  36  37  38  39  40  41  42  43  44  45 0
 3-21G
 ****


