%nproc=1
%NoSave
%Mem=1900MB
#P OB98/GEN NMR

erre ene a

0 1
  C      616.668    -361.848     729.619
  O      616.121    -360.599     729.224
  H      616.837    -362.453     728.728
  H      615.967    -362.375     730.271
  H      617.625    -361.702     730.130
  P      615.871    -359.474     730.333
  C      617.644    -357.876     729.368
  O      617.253    -358.662     730.482
  C      618.809    -356.960     729.737
  O      618.365    -356.025     730.755
  C      620.033    -357.710     730.281
  O      621.207    -357.061     729.800
  C      619.922    -357.516     731.787
  O      621.190    -357.588     732.440
  C      619.271    -356.138     731.879
  N      619.839    -355.499     736.862
  C      620.789    -355.553     735.867
  N      622.083    -355.436     736.232
  N      620.485    -355.693     734.585
  C      619.161    -355.782     734.351
  C      618.120    -355.747     735.260
  C      618.466    -355.599     736.659
  O      617.670    -355.561     737.595
  N      616.898    -355.887     734.641
  C      617.201    -356.020     733.362
  N      618.552    -355.968     733.130
  O      615.296    -359.962     731.627
  O      614.905    -358.425     729.610
  H      621.014    -357.593     733.399
  H      613.979    -358.564     729.890
  H      620.131    -355.393     737.818
  H      616.482    -356.149     732.561
  H      620.005    -355.315     731.811
  H      619.268    -358.292     732.208
  H      622.373    -355.311     737.187
  H      620.045    -358.775     730.007
  H      622.786    -355.452     735.505
  H      619.071    -356.358     728.851
  H      616.783    -357.265     729.048
  H      617.924    -358.528     728.538
  P      622.205    -357.900     728.849
  C      621.979    -356.114     727.005
  O      621.889    -357.504     727.333
  O      622.303    -359.362     729.144
  O      623.616    -357.151     729.109
  H      624.334    -357.819     728.986
  H      621.747    -355.976     725.970
  H      622.972    -355.766     727.197
  H      621.285    -355.561     727.603

 6  7  8  9  10  11  12  13  14  15  26  29  33  34 0
 6-311+G(2d,p)
 ****
 36  38  39  40  41 0
 6-311+G(2d,p)
 ****
 1  2  3  4  5  16  17  18  19  20  21  22  23  24  25 0
 3-21G
 ****
 27  28  30  31  32  35  37  42  43  44  45  46  47 0
 3-21G
 ****
 48  49 0
 3-21G
 ****


