%nproc=1
%NoSave
%Mem=1900MB
#P OB98/GEN NMR

erre ene a

0 1
  C      678.052    -338.268     550.159
  O      678.634    -338.428     551.431
  H      678.853    -338.216     549.409
  H      677.483    -337.339     550.116
  H      677.406    -339.115     549.915
  P      677.677    -338.695     552.689
  C      677.573    -336.125     552.899
  O      676.842    -337.350     552.933
  C      676.878    -335.080     553.780
  O      675.585    -334.758     553.228
  C      676.619    -335.551     555.200
  O      677.800    -335.549     555.980
  C      675.552    -334.555     555.639
  O      676.140    -333.321     556.054
  C      674.746    -334.366     554.334
  N      673.497    -335.126     554.347
  C      672.366    -334.449     554.822
  O      672.378    -333.282     555.202
  N      671.226    -335.195     554.896
  C      671.131    -336.537     554.682
  O      670.151    -337.206     555.014
  C      672.328    -337.180     554.127
  C      673.439    -336.450     553.995
  O      678.341    -339.255     553.902
  O      676.566    -339.704     552.110
  H      676.775    -340.612     552.405
  H      676.792    -333.542     556.736
  H      670.410    -334.718     555.287
  H      672.273    -338.238     553.883
  H      674.350    -336.911     553.621
  H      674.506    -333.298     554.190
  H      674.962    -334.940     556.462
  H      676.174    -336.555     555.185
  H      677.497    -334.168     553.775
  H      677.601    -335.766     551.864
  H      678.592    -336.314     553.249
  P      678.339    -336.912     556.645
  C      677.720    -336.426     559.095
  O      677.443    -337.215     557.946
  O      679.813    -336.962     556.866
  O      677.870    -338.042     555.621
  H      678.629    -338.618     555.413
  H      677.067    -336.715     559.892
  H      677.565    -335.393     558.864
  H      678.736    -336.576     559.394

 6  7  8  9  10  11  12  13  14  15  16  27  31  32  33  34  35 0
 6-311+G(2d,p)
 ****
 36  37 0
 6-311+G(2d,p)
 ****
 1  2  3  4  5  17  18  19  20  21  22  23  24  25 0
 3-21G
 ****
 26  28  29  30  38  39  40  41  42  43  44  45 0
 3-21G
 ****


