%nproc=1
%NoSave
%Mem=1900MB
#P OB98/GEN NMR

erre ene a

0 1
  C     -240.444      29.277     -53.237
  O     -239.335      30.105     -52.946
  H     -240.171      28.585     -54.040
  H     -241.289      29.885     -53.571
  H     -240.732      28.697     -52.354
  P     -239.486      31.121     -51.714
  C     -238.678      29.848     -49.586
  O     -238.343      30.721     -50.656
  C     -237.472      28.966     -49.243
  O     -237.125      28.183     -50.418
  C     -236.231      29.768     -48.834
  O     -235.529      29.058     -47.808
  C     -235.395      29.785     -50.108
  O     -234.009      29.992     -49.878
  C     -235.721      28.400     -50.685
  N     -235.455      28.317     -52.120
  C     -234.244      27.752     -52.517
  O     -233.420      27.245     -51.745
  N     -233.990      27.769     -53.862
  C     -234.797      28.312     -54.832
  O     -234.502      28.317     -56.019
  C     -236.054      28.906     -54.347
  C     -236.319      28.884     -53.039
  O     -240.833      30.632     -50.996
  O     -239.517      32.568     -52.069
  H     -241.606      31.101     -51.362
  H     -233.622      29.142     -49.580
  H     -233.121      27.359     -54.164
  H     -236.713      29.351     -55.086
  H     -237.233      29.325     -52.656
  H     -235.157      27.623     -50.155
  H     -235.750      30.577     -50.776
  H     -236.467      30.775     -48.492
  H     -237.762      28.259     -48.449
  H     -239.517      29.212     -49.890
  H     -238.974      30.440     -48.714
  P     -235.872      29.436     -46.284
  C     -238.183      28.240     -46.011
  O     -236.793      28.239     -45.729
  O     -236.881      30.661     -46.478
  O     -234.655      29.739     -45.470
  H     -237.475      30.553     -47.245
  H     -238.637      27.378     -45.569
  H     -238.332      28.218     -47.070
  H     -238.628      29.125     -45.606

 6  7  8  9  10  11  12  13  14  15  16  27  31  32  33  34  35 0
 6-311+G(2d,p)
 ****
 36  37 0
 6-311+G(2d,p)
 ****
 1  2  3  4  5  17  18  19  20  21  22  23  24  25 0
 3-21G
 ****
 26  28  29  30  38  39  40  41  42  43  44  45 0
 3-21G
 ****


