%nproc=1
%NoSave
%Mem=1900MB
#P OB98/GEN NMR

erre ene a

0 1
  C     -130.361     -80.119     212.307
  O     -131.626     -80.521     211.775
  P     -132.931     -79.826     212.414
  C     -133.607     -78.667     210.184
  O     -133.244     -78.511     211.550
  C     -133.395     -77.362     209.418
  O     -132.073     -76.839     209.637
  C     -133.525     -77.497     207.907
  O     -134.883     -77.516     207.494
  C     -132.836     -76.224     207.438
  O     -133.756     -75.119     207.498
  C     -131.719     -76.047     208.476
  N     -127.131     -74.566     206.908
  C     -128.215     -73.812     207.315
  N     -128.040     -72.473     207.332
  N     -129.360     -74.322     207.674
  C     -129.383     -75.675     207.634
  C     -128.377     -76.535     207.249
  C     -127.120     -75.953     206.825
  O     -126.142     -76.574     206.423
  N     -128.768     -77.845     207.355
  C     -129.997     -77.783     207.829
  N     -130.419     -76.487     208.001
  O     -132.379     -79.235     213.797
  O     -134.076     -80.758     212.620
  H     -133.236     -74.305     207.347
  H     -133.105     -79.170     214.446
  H     -126.272     -74.119     206.635
  H     -130.615     -78.639     208.063
  H     -131.628     -75.006     208.808
  H     -132.487     -76.287     206.401
  H     -127.161     -72.015     207.137
  H     -132.972     -78.374     207.543
  H     -128.810     -71.904     207.663
  H     -134.128     -76.628     209.788
  H     -134.654     -78.965     210.109
  H     -133.012     -79.476     209.749
  P     -135.488     -78.931     207.035
  C     -136.783     -79.201     209.268
  O     -135.804     -79.721     208.391
  O     -134.218     -79.690     206.426
  O     -136.608     -78.833     206.056
  H     -134.502     -80.323     205.740
  H     -137.661     -78.857     208.717
  H     -136.359     -78.375     209.844
  H     -137.091     -79.992     209.959
  H     -129.578     -80.648     211.804
  H     -130.327     -80.342     213.353
  H     -130.231     -79.067     212.162

 3  4  5  6  7  8  9  10  11  12  23  26  30  31  33  0
 6-311+G(2d,p)
 ****
 35  36  37  38 0
 6-311+G(2d,p)
 ****
 1  2  13  14  15  16  17  18  19  20  21  22  24  25  27  28  29 0
 3-21G
 ****
 32  34  39  40  41  42  43  44  45  46  47  48  49 0
 3-21G
 ****


