%nproc=1
%NoSave
%Mem=1900MB
#P OB98/GEN NMR

erre ene a

0 1
  C       95.164     403.076    -483.456
  O       94.157     402.190    -483.907
  H       96.104     402.520    -483.364
  H       94.901     403.482    -482.474
  H       95.303     403.889    -484.174
  P       92.685     402.812    -484.081
  C       93.606     404.656    -485.651
  O       92.897     404.359    -484.465
  C       92.639     405.064    -486.767
  O       91.735     403.980    -487.078
  C       91.773     406.270    -486.433
  O       92.472     407.482    -486.668
  C       90.601     406.070    -487.384
  O       90.917     406.532    -488.718
  C       90.425     404.545    -487.360
  N       86.121     401.986    -486.718
  C       86.859     402.213    -487.856
  N       86.341     401.738    -489.018
  N       87.989     402.862    -487.876
  C       88.363     403.314    -486.654
  C       87.727     403.136    -485.447
  C       86.489     402.384    -485.444
  O       85.822     402.091    -484.455
  N       88.431     403.721    -484.422
  C       89.468     404.289    -485.021
  N       89.458     404.079    -486.375
  O       92.126     402.880    -482.580
  O       91.767     402.046    -484.972
  H       91.811     406.230    -488.952
  H       91.156     402.770    -482.598
  H       85.263     401.463    -486.767
  H       90.228     404.857    -484.514
  H       90.102     404.152    -488.329
  H       89.717     406.630    -487.067
  H       85.354     401.536    -489.115
  H       91.415     406.219    -485.397
  H       86.867     401.918    -489.863
  H       93.232     405.252    -487.670
  H       94.163     403.764    -485.975
  H       94.316     405.470    -485.466
  P       91.983     408.790    -485.878
  C       94.072     409.071    -484.343
  O       92.691     408.741    -484.436
  O       90.450     408.472    -485.555
  O       92.142     410.078    -486.635
  H       89.979     409.291    -485.313
  H       94.390     408.991    -483.324
  H       94.223     410.073    -484.686
  H       94.641     408.397    -484.948

 6  7  8  9  10  11  12  13  14  15  26  29  33  34 0
 6-311+G(2d,p)
 ****
 36  38  39  40  41 0
 6-311+G(2d,p)
 ****
 1  2  3  4  5  16  17  18  19  20  21  22  23  24  25 0
 3-21G
 ****
 27  28  30  31  32  35  37  42  43  44  45  46  47 0
 3-21G
 ****
 48  49 0
 3-21G
 ****


