%nproc=1
%NoSave
%Mem=1900MB
#P OB98/GEN NMR

erre ene a

0 1
  C      375.354     657.608     252.449
  O      376.631     657.385     253.020
  H      375.206     656.910     251.628
  H      375.286     658.628     252.061
  H      374.579     657.444     253.198
  P      377.081     658.397     254.181
  C      379.255     656.944     254.244
  O      378.685     658.247     254.204
  C      380.610     656.944     253.540
  O      380.448     657.231     252.128
  C      381.592     657.990     254.050
  O      382.207     657.638     255.278
  C      382.582     658.005     252.894
  O      383.411     656.832     252.957
  C      381.626     657.958     251.688
  N      381.242     659.292     251.197
  C      382.254     660.055     250.600
  O      383.397     659.609     250.500
  N      381.955     661.325     250.163
  C      380.747     661.790     250.286
  N      380.509     663.047     249.846
  C      379.652     661.014     250.902
  C      379.966     659.792     251.336
  O      376.640     657.643     255.523
  O      376.586     659.797     254.059
  H      383.887     656.864     253.806
  H      377.007     658.117     256.314
  H      378.665     661.450     251.012
  H      379.210     659.164     251.795
  H      382.066     657.400     250.855
  H      383.255     658.866     252.913
  H      381.116     658.985     254.124
  H      381.028     655.925     253.624
  H      381.302     663.579     249.481
  H      378.570     656.258     253.747
  H      379.646     663.546     250.032
  H      379.388     656.633     255.286
  P      382.247     658.750     256.434
  C      383.609     657.014     257.822
  O      383.458     658.370     257.415
  O      380.938     658.417     257.308
  O      382.235     660.180     255.954
  H      380.539     659.228     257.671
  H      384.457     656.928     258.469
  H      383.755     656.397     256.960
  H      382.729     656.698     258.342

 6  7  8  9  10  11  12  13  14  15  16  26  30  31  32  33  35 0
 6-311+G(2d,p)
 ****
 37  38 0
 6-311+G(2d,p)
 ****
 1  2  3  4  5  17  18  19  20  21  22  23  24  25 0
 3-21G
 ****
 27  28  29  34  36  39  40  41  42  43  44  45  46 0
 3-21G
 ****


