%nproc=1
%NoSave
%Mem=1900MB
#P OB98/GEN NMR

erre ene a

0 1
  C      198.877     -41.805     -26.697
  O      198.636     -40.751     -25.787
  H      198.061     -41.837     -27.423
  H      198.911     -42.761     -26.169
  H      199.817     -41.647     -27.237
  P      199.784     -40.353     -24.737
  C      200.834     -38.369     -26.009
  O      200.988     -39.718     -25.586
  C      201.792     -37.467     -25.231
  O      203.155     -37.915     -25.403
  C      201.776     -36.008     -25.679
  O      200.622     -35.340     -25.198
  C      203.094     -35.514     -25.092
  O      202.954     -35.223     -23.695
  C      204.008     -36.747     -25.313
  N      204.859     -36.633     -26.496
  C      205.644     -35.484     -26.586
  O      205.612     -34.580     -25.746
  N      206.458     -35.398     -27.689
  C      206.499     -36.290     -28.722
  O      207.209     -36.141     -29.715
  C      205.622     -37.465     -28.594
  C      204.852     -37.579     -27.505
  O      200.189     -41.426     -23.780
  O      199.173     -39.081     -23.976
  H      202.719     -36.062     -23.255
  H      198.814     -39.357     -23.110
  H      207.026     -34.570     -27.776
  H      205.625     -38.192     -29.401
  H      204.203     -38.439     -27.393
  H      204.654     -36.900     -24.438
  H      203.456     -34.603     -25.572
  H      201.833     -35.948     -26.777
  H      201.542     -37.546     -24.161
  H      199.800     -38.055     -25.819
  H      201.036     -38.309     -27.086
  P      200.106     -33.994     -25.891
  C      197.923     -35.206     -26.484
  O      198.990     -34.405     -26.980
  O      201.183     -33.095     -26.412
  O      199.250     -33.271     -24.746
  H      199.748     -32.509     -24.388
  H      197.241     -35.423     -27.279
  H      197.410     -34.676     -25.708
  H      198.316     -36.121     -26.092

 6  7  8  9  10  11  12  13  14  15  16  26  31  32  33  34  35 0
 6-311+G(2d,p)
 ****
 36  37 0
 6-311+G(2d,p)
 ****
 1  2  3  4  5  17  18  19  20  21  22  23  24  25 0
 3-21G
 ****
 27  28  29  30  38  39  40  41  42  43  44  45 0
 3-21G
 ****


