%nproc=1
%NoSave
%Mem=1900MB
#P OB98/GEN NMR

erre ene a

0 1
  C     -224.095    -588.210     199.714
  O     -224.535    -587.794     200.995
  H     -223.470    -589.098     199.830
  H     -223.502    -587.416     199.250
  H     -224.950    -588.457     199.079
  P     -225.652    -586.646     201.027
  C     -226.719    -587.192     203.360
  O     -225.938    -586.301     202.573
  C     -227.257    -586.467     204.593
  O     -226.197    -586.193     205.528
  C     -227.843    -585.096     204.305
  O     -229.089    -585.164     203.647
  C     -227.931    -584.521     205.713
  O     -229.128    -584.936     206.382
  C     -226.681    -585.138     206.393
  N     -225.665    -584.138     206.668
  C     -225.550    -583.752     208.010
  O     -226.271    -584.279     208.863
  N     -224.657    -582.772     208.338
  C     -223.961    -582.199     207.406
  N     -223.116    -581.202     207.799
  C     -224.054    -582.568     205.981
  C     -224.919    -583.536     205.684
  O     -226.970    -587.435     200.578
  O     -225.344    -585.450     200.193
  H     -229.134    -585.913     206.350
  H     -227.113    -588.266     201.061
  H     -223.440    -582.066     205.243
  H     -225.049    -583.874     204.661
  H     -226.959    -585.613     207.342
  H     -227.928    -583.431     205.704
  H     -227.125    -584.489     203.732
  H     -227.992    -587.122     205.079
  H     -223.125    -580.947     208.776
  H     -226.125    -588.066     203.660
  H     -222.584    -580.635     207.152
  H     -227.545    -587.552     202.738
  P     -229.661    -583.923     202.812
  C     -231.422    -584.898     201.201
  O     -231.191    -584.267     202.459
  O     -228.837    -583.515     201.637
  O     -229.826    -582.784     203.923
  H     -230.424    -583.006     204.654
  H     -232.470    -585.076     201.078
  H     -230.895    -585.829     201.167
  H     -231.074    -584.262     200.414

 6  7  8  9  10  11  12  13  14  15  16  26  30  31  32  33  35 0
 6-311+G(2d,p)
 ****
 37  38 0
 6-311+G(2d,p)
 ****
 1  2  3  4  5  17  18  19  20  21  22  23  24  25 0
 3-21G
 ****
 27  28  29  34  36  39  40  41  42  43  44  45  46 0
 3-21G
 ****


