%nproc=1
%NoSave
%Mem=1900MB
#P OB98/GEN NMR

erre ene a

0 1
  C      -67.874    -995.697     287.512
  O      -67.799    -994.772     286.450
  H      -66.884    -996.152     287.643
  H      -68.596    -996.489     287.297
  H      -68.144    -995.181     288.443
  P      -69.174    -994.154     285.887
  C      -69.443    -996.158     284.274
  O      -69.330    -994.742     284.399
  C      -69.897    -996.548     282.867
  O      -71.232    -996.057     282.615
  C      -69.043    -995.958     281.757
  O      -67.744    -996.493     281.688
  C      -69.968    -996.048     280.545
  O      -69.909    -997.305     279.889
  C      -71.358    -995.862     281.188
  N      -71.953    -994.563     280.868
  C      -72.931    -994.584     279.884
  O      -73.295    -995.608     279.295
  N      -73.482    -993.364     279.569
  C      -73.104    -992.172     280.084
  O      -73.600    -991.105     279.721
  C      -72.026    -992.203     281.100
  C      -71.510    -993.389     281.438
  O      -69.301    -992.666     285.969
  O      -70.303    -994.939     286.704
  H      -69.727    -997.981     280.592
  H      -71.171    -994.478     286.651
  H      -74.211    -993.363     278.875
  H      -71.702    -991.275     281.528
  H      -70.711    -993.450     282.183
  H      -72.045    -996.648     280.840
  H      -69.723    -995.277     279.804
  H      -68.918    -994.877     281.969
  H      -69.922    -997.644     282.795
  H      -70.188    -996.487     285.003
  H      -68.484    -996.624     284.510
  P      -66.430    -995.594     281.538
  C      -66.183    -995.184     278.984
  O      -65.745    -995.927     280.111
  O      -65.555    -995.477     282.750
  O      -67.071    -994.138     281.274
  H      -66.485    -993.475     281.693
  H      -65.649    -995.507     278.115
  H      -65.999    -994.143     279.150
  H      -67.231    -995.342     278.838

 6  7  8  9  10  11  12  13  14  15  16  26  31  32  33  34  35 0
 6-311+G(2d,p)
 ****
 36  37 0
 6-311+G(2d,p)
 ****
 1  2  3  4  5  17  18  19  20  21  22  23  24  25 0
 3-21G
 ****
 27  28  29  30  38  39  40  41  42  43  44  45 0
 3-21G
 ****


