%nproc=1
%NoSave
%Mem=1900MB
#P OB98/GEN NMR

erre ene a

0 1
  C     -183.513    -103.357    -267.999
  O     -182.240    -103.850    -268.424
  P     -181.676    -105.129    -267.632
  C     -180.261    -103.847    -265.871
  O     -181.381    -104.683    -266.121
  C     -180.271    -103.339    -264.426
  O     -179.977    -104.379    -263.477
  C     -179.252    -102.233    -264.169
  O     -179.750    -100.995    -264.643
  C     -179.119    -102.287    -262.652
  O     -180.162    -101.528    -262.006
  C     -179.280    -103.783    -262.352
  N     -176.362    -105.994    -258.839
  C     -177.509    -105.232    -258.689
  N     -177.949    -105.053    -257.427
  N     -178.154    -104.691    -259.688
  C     -177.604    -104.961    -260.895
  C     -176.490    -105.723    -261.172
  C     -175.779    -106.309    -260.060
  O     -174.777    -107.012    -260.141
  N     -176.270    -105.814    -262.524
  C     -177.170    -105.000    -263.050
  N     -178.045    -104.510    -262.109
  O     -180.218    -105.339    -268.265
  O     -182.523    -106.346    -267.789
  H     -181.017    -101.987    -262.127
  H     -180.209    -106.151    -268.809
  H     -175.898    -106.379    -258.035
  H     -177.247    -104.759    -264.100
  H     -179.906    -103.950    -261.465
  H     -178.176    -101.857    -262.311
  H     -177.501    -105.438    -256.610
  H     -178.296    -102.486    -264.640
  H     -178.788    -104.503    -257.293
  H     -181.284    -102.963    -264.221
  H     -180.267    -103.001    -266.563
  H     -179.346    -104.416    -266.077
  P     -179.387    -100.566    -266.147
  C     -177.065     -99.606    -265.483
  O     -177.786    -100.534    -266.265
  O     -179.811     -99.021    -266.196
  O     -180.091    -101.354    -267.198
  H     -180.287     -98.841    -267.032
  H     -176.081    -100.019    -265.261
  H     -177.576     -99.382    -264.540
  H     -176.940     -98.676    -266.055
  H     -183.784    -102.510    -268.594
  H     -183.458    -103.067    -266.970
  H     -184.249    -104.125    -268.114

 3  4  5  6  7  8  9  10  11  12  23  26  30  31 0
 6-311+G(2d,p)
 ****
 33  35  36  37  38 0
 6-311+G(2d,p)
 ****
 1  2  13  14  15  16  17  18  19  20  21  22  24  25 0
 3-21G
 ****
 27  28  29  32  34  39  40  41  42  43  44  45  46  47  48  49 0
 3-21G
 ****


