%nproc=1
%NoSave
%Mem=1900MB
#P OB98/GEN NMR

erre ene a

0 1
  C     -894.962    -429.092     123.846
  O     -895.152    -429.843     125.034
  H     -895.642    -428.245     123.855
  H     -895.182    -429.727     122.982
  H     -893.932    -428.717     123.784
  P     -894.092    -430.981     125.418
  C     -895.442    -433.079     124.747
  O     -894.362    -432.206     124.417
  C     -895.382    -434.357     123.903
  O     -894.142    -435.067     124.225
  C     -896.552    -435.340     124.175
  O     -896.812    -436.032     122.938
  C     -895.902    -436.267     125.185
  O     -896.672    -437.448     125.362
  C     -894.512    -436.415     124.582
  N     -893.542    -436.999     125.492
  C     -893.752    -438.305     125.901
  O     -894.702    -438.996     125.525
  N     -892.832    -438.815     126.793
  C     -891.772    -438.148     127.298
  O     -890.952    -438.665     128.075
  C     -891.602    -436.754     126.853
  C     -892.472    -436.250     125.985
  O     -894.012    -431.340     126.862
  O     -892.692    -430.388     124.891
  H     -892.212    -429.973     125.631
  H     -896.212    -438.053     125.987
  H     -892.982    -439.769     127.091
  H     -890.762    -436.181     127.259
  H     -892.392    -435.227     125.630
  H     -894.542    -436.995     123.657
  H     -895.862    -435.788     126.170
  H     -897.462    -434.843     124.515
  H     -895.322    -434.082     122.846
  H     -896.382    -432.544     124.543
  H     -895.392    -433.329     125.817
  P     -898.132    -435.788     122.072
  C     -899.122    -438.082     122.735
  O     -899.332    -436.676     122.644
  O     -897.932    -435.972     120.602
  O     -898.592    -434.279     122.394
  H     -898.962    -433.886     121.581
  H     -900.000    -438.549     123.131
  H     -898.292    -438.278     123.381
  H     -898.917    -438.476     121.761

 6  7  8  9  10  11  12  13  14  15  16  27  31  32  33  34  35 0
 6-311+G(2d,p)
 ****
 36  37 0
 6-311+G(2d,p)
 ****
 1  2  3  4  5  17  18  19  20  21  22  23  24  25 0
 3-21G
 ****
 26  28  29  30  38  39  40  41  42  43  44  45 0
 3-21G
 ****


