%nproc=1
%NoSave
%Mem=1900MB
#P OB98/GEN NMR

erre ene a

0 1
  C      444.431     204.868     -64.722
  O      445.516     205.721     -65.102
  P      445.166     207.230     -65.520
  C      446.651     208.367     -63.704
  O      446.387     208.175     -65.098
  C      448.068     208.906     -63.503
  O      449.045     207.851     -63.610
  C      448.476     209.932     -64.552
  O      447.888     211.192     -64.271
  C      449.994     209.916     -64.450
  O      450.471     210.873     -63.487
  C      450.295     208.473     -63.979
  N      450.991     207.687     -64.992
  C      452.384     207.865     -65.052
  O      452.936     208.666     -64.295
  N      453.088     207.151     -65.981
  C      452.464     206.350     -66.800
  N      453.222     205.673     -67.701
  C      450.997     206.158     -66.787
  C      450.333     206.847     -65.860
  O      444.006     207.634     -64.495
  O      444.714     207.373     -66.942
  H      450.192     211.753     -63.828
  H      443.381     208.249     -64.916
  H      450.528     205.487     -67.485
  H      449.253     206.774     -65.773
  H      450.923     208.481     -63.069
  H      450.469     210.170     -65.401
  H      448.169     209.586     -65.552
  H      448.133     209.356     -62.494
  H      454.225     205.836     -67.689
  H      446.529     207.426     -63.161
  H      452.847     205.038     -68.384
  H      445.909     209.053     -63.297
  P      447.817     212.263     -65.457
  C      445.258     212.249     -65.715
  O      446.377     212.975     -65.275
  O      447.541     211.313     -66.732
  O      448.987     213.152     -65.656
  H      447.560     211.856     -67.550
  H      444.357     212.747     -65.346
  H      445.274     211.231     -65.320
  H      445.229     212.230     -66.816
  H      444.810     203.899     -64.471
  H      443.743     204.782     -65.537
  H      443.929     205.285     -63.874

 3  4  5  6  7  8  9  10  11  12  13  21  23  27  28  29  30  32 0
 6-311+G(2d,p)
 ****
 34  35 0
 6-311+G(2d,p)
 ****
 1  2  14  15  16  17  18  19  20  22  24  25  26 0
 3-21G
 ****
 31  33  36  37  38  39  40  41  42  43  44  45  46 0
 3-21G
 ****


