%nproc=1
%NoSave
%Mem=1900MB
#P OB98/GEN NMR

erre ene a

0 1
  C     -325.768    -386.290     689.230
  O     -324.551    -386.681     689.856
  P     -324.021    -386.129     691.257
  C     -321.695    -385.224     690.419
  O     -322.423    -386.134     691.232
  C     -320.222    -385.149     690.855
  O     -320.163    -384.621     692.207
  C     -319.541    -386.529     690.881
  O     -318.222    -386.519     690.353
  C     -319.712    -386.964     692.320
  O     -318.808    -387.984     692.721
  C     -319.600    -385.635     693.072
  N     -319.357    -386.915     698.012
  C     -318.487    -387.233     696.981
  N     -317.424    -388.005     697.298
  N     -318.659    -386.842     695.745
  C     -319.805    -386.148     695.551
  C     -320.749    -385.791     696.482
  C     -320.527    -386.182     697.857
  O     -321.253    -385.917     698.812
  N     -321.768    -385.076     695.908
  C     -321.458    -385.024     694.634
  N     -320.265    -385.650     694.365
  O     -324.680    -386.686     692.471
  O     -324.369    -384.553     691.200
  H     -317.930    -387.581     692.829
  H     -324.557    -384.279     692.122
  H     -319.164    -387.224     698.946
  H     -322.044    -384.528     693.870
  H     -318.563    -385.368     693.271
  H     -320.724    -387.375     692.424
  H     -317.299    -388.439     698.196
  H     -320.066    -387.230     690.224
  H     -316.924    -388.409     696.505
  H     -319.698    -384.454     690.194
  H     -322.173    -384.252     690.551
  H     -321.789    -385.500     689.365
  P     -317.749    -386.603     688.828
  C     -317.399    -389.110     688.416
  O     -316.769    -387.867     688.667
  O     -316.761    -385.360     688.632
  O     -318.858    -386.552     687.829
  H     -317.130    -384.759     687.950
  H     -316.665    -389.908     688.587
  H     -317.724    -389.156     687.370
  H     -318.251    -389.257     689.076
  H     -325.876    -386.813     688.303
  H     -325.752    -385.236     689.045
  H     -326.591    -386.527     689.871

 3  4  5  6  7  8  9  10  11  12  23  26  30  31 0
 6-311+G(2d,p)
 ****
 33  35  36  37  38 0
 6-311+G(2d,p)
 ****
 1  2  13  14  15  16  17  18  19  20  21  22  24  25 0
 3-21G
 ****
 27  28  29  32  34  39  40  41  42  43  44  45  46  47  48  49 0
 3-21G
 ****


