%nproc=1
%NoSave
%Mem=1900MB
#P OB98/GEN NMR

erre ene a

0 1
  C      384.467     477.205    -892.050
  O      385.000     477.437    -893.350
  P      384.606     478.804    -894.080
  C      382.465     479.699    -895.260
  O      383.203     478.579    -894.790
  C      380.974     479.356    -895.370
  O      380.362     479.351    -894.050
  C      380.175     480.333    -896.200
  O      380.348     480.114    -897.590
  C      378.748     480.062    -895.740
  O      378.180     478.940    -896.410
  C      378.972     479.727    -894.240
  N      378.598     480.851    -893.360
  C      377.247     481.117    -893.240
  O      376.394     480.490    -893.860
  N      376.892     482.170    -892.420
  C      377.770     482.969    -891.760
  O      377.401     483.932    -891.100
  C      379.203     482.654    -891.920
  C      379.545     481.636    -892.710
  O      385.640     478.884    -895.290
  O      384.671     480.025    -893.190
  H      377.340     478.732    -895.950
  H      385.890     479.818    -895.460
  H      375.917     482.367    -892.330
  H      379.926     483.302    -891.420
  H      380.583     481.400    -892.860
  H      378.380     478.859    -893.940
  H      378.081     480.908    -895.900
  H      380.434     481.372    -895.940
  H      380.888     478.342    -895.790
  H      382.852     479.997    -896.250
  H      382.602     480.527    -894.560
  P      380.352     481.419    -898.550
  C      378.832     483.523    -898.420
  O      378.941     482.124    -898.300
  O      380.234     480.712    -900.000
  O      381.572     482.256    -898.360
  H      379.712     479.896    -899.960
  H      379.473     483.921    -899.200
  H      379.092     483.989    -897.470
  H      377.774     483.764    -898.640
  H      384.812     476.259    -891.687
  H      383.398     477.200    -892.098
  H      384.791     477.981    -891.388

 3  4  5  6  7  8  9  10  11  12  13  23  28  29  30  31  32 0
 6-311+G(2d,p)
 ****
 33  34 0
 6-311+G(2d,p)
 ****
 1  2  14  15  16  17  18  19  20  21  22  24  25  26 0
 3-21G
 ****
 27  35  36  37  38  39  40  41  42  43  44  45 0
 3-21G
 ****


