%nproc=1
%NoSave
%Mem=1900MB
#P OB98/GEN NMR

erre ene a

0 1
  C      536.903    -363.757      74.726
  O      536.202    -364.898      75.236
  P      534.632    -365.010      74.909
  C      534.839    -367.609      74.666
  O      534.209    -366.508      75.308
  C      534.044    -368.897      74.906
  O      534.406    -369.468      76.208
  C      532.521    -368.716      74.884
  O      531.973    -369.892      74.260
  C      532.160    -368.682      76.352
  O      530.796    -369.023      76.582
  C      533.175    -369.687      76.919
  N      533.364    -369.548      78.364
  C      532.984    -370.629      79.158
  O      532.430    -371.632      78.705
  N      533.212    -370.494      80.497
  C      533.692    -369.382      81.121
  O      533.873    -369.316      82.332
  C      533.969    -368.233      80.250
  C      533.789    -368.359      78.933
  O      534.644    -365.004      73.313
  O      533.832    -363.921      75.545
  H      535.398    -365.486      72.923
  H      530.643    -369.935      76.247
  H      532.970    -371.276      81.092
  H      534.299    -367.308      80.713
  H      533.962    -367.528      78.260
  H      532.851    -370.714      76.722
  H      532.343    -367.686      76.761
  H      532.206    -367.823      74.337
  H      534.349    -369.628      74.138
  H      535.853    -367.739      75.066
  H      534.944    -367.395      73.603
  P      530.963    -369.696      73.025
  C      531.478    -372.031      71.958
  O      530.532    -371.155      72.533
  O      531.997    -369.216      71.889
  O      529.869    -368.710      73.257
  H      532.792    -369.778      71.845
  H      531.055    -373.033      71.914
  H      532.405    -372.062      72.542
  H      531.713    -371.700      70.933
  H      537.931    -363.811      75.017
  H      536.467    -362.864      75.122
  H      536.834    -363.744      73.658

 3  4  5  6  7  8  9  10  11  12  13  24  28  29  30  31  32 0
 6-311+G(2d,p)
 ****
 33  34 0
 6-311+G(2d,p)
 ****
 1  2  14  15  16  17  18  19  20  21  22  23  25  26  27 0
 3-21G
 ****
 35  36  37  38  39  40  41  42  43  44  45 0
 3-21G
 ****


