%nproc=1
%NoSave
%Mem=1900MB
#P OB98/GEN NMR

erre ene a

0 1
  C      322.849     551.121     173.387
  O      321.625     550.911     174.068
  H      323.676     550.896     174.071
  H      322.926     552.166     173.076
  H      322.922     550.467     172.513
  P      320.281     550.955     173.198
  C      318.035     549.661     173.383
  O      319.148     550.213     174.065
  C      317.366     548.593     174.254
  O      318.058     547.326     174.048
  C      317.403     548.894     175.762
  O      316.185     548.429     176.356
  C      318.557     548.043     176.256
  O      318.498     547.735     177.637
  C      318.415     546.819     175.349
  N      319.647     546.022     175.281
  C      319.668     544.815     175.981
  O      318.700     544.329     176.571
  N      320.871     544.150     175.978
  C      322.022     544.576     175.388
  O      323.073     543.948     175.442
  C      321.943     545.866     174.675
  C      320.779     546.516     174.656
  O      320.585     549.920     172.012
  O      319.888     552.302     172.689
  H      320.999     550.375     171.259
  H      317.591     547.419     177.829
  H      320.900     543.278     176.475
  H      322.841     546.239     174.205
  H      320.689     547.481     174.160
  H      317.591     546.185     175.694
  H      319.514     548.560     176.067
  H      317.542     549.955     176.001
  H      316.334     548.450     173.915
  H      318.371     549.201     172.448
  H      317.316     550.460     173.152
  P      315.034     549.508     176.637
  C      312.477     548.964     176.914
  O      313.821     548.685     177.294
  O      314.532     549.824     175.142
  O      315.518     550.686     177.406
  H      314.564     549.047     174.562
  H      311.813     548.321     177.453
  H      312.361     548.797     175.864
  H      312.247     549.984     177.140

 6  7  8  9  10  11  12  13  14  15  16  27  31  32  33  34  35 0
 6-311+G(2d,p)
 ****
 36  37 0
 6-311+G(2d,p)
 ****
 1  2  3  4  5  17  18  19  20  21  22  23  24  25 0
 3-21G
 ****
 26  28  29  30  38  39  40  41  42  43  44  45 0
 3-21G
 ****


