%nproc=1
%NoSave
%Mem=1900MB
#P OB98/GEN NMR

erre ene a

0 1
  C      696.045      -3.883     146.130
  O      695.068      -2.871     145.994
  H      695.749      -4.553     146.942
  H      697.005      -3.427     146.386
  H      696.140      -4.464     145.209
  P      695.080      -2.018     144.638
  C      693.053      -3.149     143.467
  O      694.463      -2.964     143.495
  C      692.703      -4.517     142.882
  O      692.982      -4.495     141.450
  C      693.501      -5.688     143.496
  O      692.641      -6.830     143.585
  C      694.557      -5.959     142.446
  O      695.066      -7.288     142.519
  C      693.772      -5.667     141.167
  N      697.270      -7.960     138.389
  C      696.406      -8.461     139.345
  N      696.536      -9.769     139.656
  N      695.504      -7.743     139.951
  C      695.464      -6.454     139.531
  C      696.264      -5.833     138.598
  C      697.278      -6.635     137.947
  O      698.082      -6.237     137.111
  N      695.954      -4.498     138.500
  C      694.987      -4.312     139.388
  N      694.659      -5.470     140.037
  O      696.638      -1.956     144.274
  O      694.477      -0.658     144.731
  H      694.307      -7.905     142.518
  H      697.025      -1.129     144.619
  H      697.965      -8.551     137.968
  H      694.512      -3.369     139.606
  H      693.089      -6.485     140.899
  H      695.394      -5.258     142.561
  H      697.193     -10.398     139.214
  H      693.922      -5.464     144.482
  H      695.884     -10.163     140.327
  H      691.626      -4.681     142.996
  H      692.605      -2.367     142.842
  H      692.659      -3.054     144.485
  P      692.053      -7.219     145.021
  C      689.569      -7.597     144.346
  O      690.502      -6.805     145.069
  O      692.744      -6.154     145.997
  O      692.352      -8.619     145.441
  H      692.915      -6.565     146.866
  H      688.585      -7.197     144.476
  H      689.596      -8.602     144.711
  H      689.823      -7.588     143.307

 6  7  8  9  10  11  12  13  14  15  26  29  33  34 0
 6-311+G(2d,p)
 ****
 36  38  39  40  41 0
 6-311+G(2d,p)
 ****
 1  2  3  4  5  16  17  18  19  20  21  22  23  24  25 0
 3-21G
 ****
 27  28  30  31  32  35  37  42  43  44  45  46  47 0
 3-21G
 ****
 48  49 0
 3-21G
 ****


