%nproc=1
%NoSave
%Mem=1900MB
#P OB98/GEN NMR

erre ene a

0 1
  C      456.175       2.648     550.134
  O      456.741       1.726     551.069
  P      458.092       2.167     551.815
  C      459.873       1.007     550.281
  O      459.221       2.203     550.674
  C      461.224       1.328     549.642
  O      461.054       1.667     548.242
  C      461.935       2.519     550.267
  O      462.496       2.187     551.528
  C      462.951       2.846     549.181
  O      464.083       1.965     549.270
  C      462.152       2.547     547.891
  N      461.675       3.750     547.225
  C      462.482       4.232     546.198
  O      463.545       3.706     545.875
  N      462.030       5.358     545.565
  C      460.893       6.048     545.869
  O      460.535       7.051     545.257
  C      460.107       5.521     546.997
  C      460.528       4.414     547.613
  O      458.421       0.851     552.659
  O      457.934       3.415     552.619
  H      458.178       0.032     552.198
  H      464.661       2.174     548.508
  H      462.594       5.716     544.808
  H      459.212       6.059     547.282
  H      459.963       4.008     548.449
  H      462.773       1.986     547.184
  H      463.331       3.870     549.253
  H      461.234       3.355     550.383
  H      461.853       0.435     549.710
  H      459.256       0.465     549.558
  H      459.994       0.363     551.157
  P      461.690       2.679     552.831
  C      463.339       4.686     553.122
  O      462.007       4.239     553.002
  O      462.536       1.977     553.995
  O      460.242       2.312     552.812
  H      463.497       2.064     553.871
  H      463.377       5.749     552.881
  H      464.007       4.147     552.445
  H      463.676       4.547     554.152
  H      455.284       2.229     549.714
  H      456.880       2.842     549.353
  H      455.937       3.563     550.635

 3  4  5  6  7  8  9  10  11  12  13  24  28  29  30  31  32 0
 6-311+G(2d,p)
 ****
 33  34 0
 6-311+G(2d,p)
 ****
 1  2  14  15  16  17  18  19  20  21  22  23  25  26  27 0
 3-21G
 ****
 35  36  37  38  39  40  41  42  43  44  45 0
 3-21G
 ****


