%nproc=1
%NoSave
%Mem=1900MB
#P OB98/GEN NMR

erre ene a

0 1
  C      -61.440    -240.256    -272.235
  O      -60.217    -239.924    -272.859
  H      -61.390    -239.962    -271.183
  H      -61.609    -241.335    -272.290
  H      -62.268    -239.724    -272.712
  P      -60.100    -240.237    -274.427
  C      -57.514    -240.433    -274.234
  O      -58.619    -239.797    -274.864
  C      -56.434    -240.737    -275.268
  O      -56.877    -241.814    -276.124
  C      -56.121    -239.573    -276.203
  O      -55.269    -238.618    -275.594
  C      -55.476    -240.301    -277.375
  O      -54.086    -240.558    -277.135
  C      -56.252    -241.624    -277.413
  N      -56.970    -241.913    -282.451
  C      -55.856    -241.994    -281.690
  N      -55.752    -241.925    -280.346
  C      -56.964    -241.766    -279.788
  C      -58.184    -241.660    -280.433
  C      -58.163    -241.744    -281.835
  N      -59.291    -241.627    -282.610
  N      -59.198    -241.457    -279.519
  C      -58.604    -241.449    -278.344
  N      -57.255    -241.637    -278.458
  O      -61.038    -239.117    -275.086
  O      -60.502    -241.614    -274.834
  H      -53.731    -240.954    -277.955
  H      -61.929    -239.485    -275.235
  H      -54.924    -242.126    -282.235
  H      -59.101    -241.301    -277.391
  H      -55.596    -242.484    -277.583
  H      -55.544    -239.715    -278.293
  H      -57.050    -239.102    -276.547
  H      -55.530    -241.068    -274.743
  H      -57.850    -241.372    -273.778
  H      -57.124    -239.776    -273.450
  H      -59.199    -241.672    -283.611
  H      -60.169    -241.394    -282.166
  P      -55.866    -237.172    -275.251
  C      -54.581    -235.531    -276.805
  O      -54.705    -236.094    -275.508
  O      -56.007    -237.203    -273.658
  O      -57.161    -236.857    -275.921
  H      -56.931    -237.381    -273.401
  H      -53.768    -234.836    -276.816
  H      -55.487    -235.024    -277.062
  H      -54.394    -236.309    -277.515

 6  7  8  9  10  11  12  13  14  15  25  28  32  33  34  35 0
 6-311+G(2d,p)
 ****
 36  37  40 0
 6-311+G(2d,p)
 ****
 1  2  3  4  5  16  17  18  19  20  21  22  23  24 0
 3-21G
 ****
 26  27  29  30  31  38  39 41  42  43  44  45  46  47  48 0
 3-21G
 ****


