%nproc=1
%NoSave
%Mem=1900MB
#P OB98/GEN NMR

erre ene a

0 1
  C      -31.963    -110.076     -59.992
  O      -31.053    -111.127     -59.714
  P      -31.550    -112.473     -59.006
  C      -31.443    -113.701     -61.257
  O      -32.254    -113.382     -60.134
  C      -31.612    -115.163     -61.667
  O      -33.028    -115.446     -61.864
  C      -30.884    -115.556     -62.963
  O      -30.459    -116.914     -62.807
  C      -31.994    -115.490     -64.004
  O      -31.705    -116.245     -65.174
  C      -33.167    -116.016     -63.180
  N      -36.205    -116.340     -67.293
  C      -34.944    -116.781     -67.069
  N      -34.194    -116.632     -65.952
  C      -34.871    -115.951     -65.011
  C      -36.149    -115.416     -65.108
  C      -36.834    -115.649     -66.315
  N      -38.132    -115.242     -66.548
  N      -36.474    -114.733     -63.948
  C      -35.416    -114.858     -63.172
  N      -34.453    -115.639     -63.744
  O      -32.359    -112.277     -57.765
  O      -30.195    -113.270     -58.695
  H      -32.418    -116.092     -65.823
  H      -29.997    -113.226     -57.738
  H      -34.479    -117.332     -67.883
  H      -35.293    -114.405     -62.194
  H      -33.147    -117.106     -63.085
  H      -32.153    -114.447     -64.303
  H      -30.036    -114.911     -63.211
  H      -31.273    -115.793     -60.834
  H      -30.400    -113.521     -60.979
  H      -38.574    -115.577     -67.393
  H      -38.711    -114.960     -65.759
  H      -31.696    -113.044     -62.097
  P      -29.274    -117.494     -63.726
  C      -27.685    -117.191     -61.738
  O      -27.909    -116.930     -63.115
  O      -29.456    -117.297     -65.197
  O      -29.230    -119.053     -63.333
  H      -28.750    -119.547     -64.028
  H      -28.243    -116.464     -61.136
  H      -26.617    -117.089     -61.522
  H      -28.007    -118.201     -61.474
  H      -31.442    -109.269     -60.464
  H      -32.401    -109.732     -59.078
  H      -32.732    -110.434     -60.644

 3  4  5  6  7  8  9  10  11  12  22  25  29  30  31  32 0
 6-311+G(2d,p)
 ****
 33  36  37 0
 6-311+G(2d,p)
 ****
 1  2  13  14  15  16  17  18  19  20  21  23  24  26 0
 3-21G
 ****
 27  28  34  35  38  39  40  41  42  43  44  45  46  47  48 0
 3-21G
 ****


