%nproc=1
%NoSave
%Mem=1900MB
#P OB98/GEN NMR

erre ene a

0 1
  C     -250.416      16.841     363.831
  O     -250.614      17.400     362.549
  P     -249.361      17.759     361.612
  C     -250.302      16.648     359.483
  O     -249.309      16.596     360.506
  C     -250.806      15.246     359.144
  O     -251.545      14.691     360.253
  C     -251.752      15.194     357.952
  O     -251.030      15.295     356.740
  C     -252.435      13.849     358.174
  O     -251.630      12.771     357.678
  C     -252.536      13.792     359.716
  N     -253.877      14.113     360.195
  C     -254.922      13.378     359.620
  O     -254.690      12.545     358.745
  N     -256.210      13.642     360.019
  C     -256.431      14.575     360.894
  N     -257.731      14.797     361.243
  C     -255.362      15.392     361.500
  C     -254.121      15.112     361.106
  O     -248.081      18.016     362.331
  O     -249.888      19.021     360.777
  H     -251.707      12.797     356.704
  H     -249.910      19.838     361.335
  H     -255.599      16.164     362.216
  H     -253.275      15.665     361.497
  H     -252.275      12.790     360.078
  H     -253.401      13.793     357.664
  H     -252.492      16.001     358.031
  H     -249.931      14.605     358.964
  H     -258.436      14.235     360.786
  H     -249.855      17.097     358.593
  H     -258.017      15.518     361.885
  H     -251.127      17.288     359.815
  P     -251.458      16.378     355.644
  C     -249.209      17.154     354.685
  O     -250.287      17.467     355.544
  O     -252.834      16.936     355.799
  O     -251.325      15.580     354.259
  H     -252.105      15.772     353.703
  H     -248.669      18.074     354.448
  H     -249.562      16.699     353.756
  H     -248.525      16.464     355.193
  H     -251.364      16.674     364.298
  H     -249.838      17.515     364.429
  H     -249.895      15.911     363.738

 3  4  5  6  7  8  9  10  11  12  13  23  27  28  29  30  32 0
 6-311+G(2d,p)
 ****
 34  35 0
 6-311+G(2d,p)
 ****
 1  2  14  15  16  17  18  19  20  21  22  24  25  26 0
 3-21G
 ****
 31  33  36  37  38  39  40  41  42  43  44  45  46 0
 3-21G
 ****


