%nproc=1
%NoSave
%Mem=1900MB
#P OB98/GEN NMR

erre ene a

0 1
  C      217.372    -992.633     822.841
  O      218.804    -992.545     823.019
  P      219.488    -992.067     824.392
  C      219.796    -994.329     825.638
  O      220.434    -993.250     824.921
  C      220.227    -995.679     825.081
  O      219.569    -995.942     823.805
  C      221.719    -995.815     824.753
  O      222.522    -995.908     825.911
  C      221.710    -997.057     823.872
  O      221.759    -998.254     824.655
  C      220.359    -996.957     823.119
  N      220.497    -996.624     821.727
  C      220.542    -997.714     820.818
  O      220.545    -998.857     821.258
  N      220.591    -997.461     819.487
  C      220.716    -996.222     819.063
  N      220.754    -996.016     817.719
  C      220.821    -995.061     819.974
  C      220.685    -995.322     821.280
  O      218.529    -991.569     825.422
  O      220.521    -990.916     823.966
  H      220.670    -990.312     824.729
  H      221.385    -998.960     824.117
  H      220.933    -994.065     819.578
  H      220.725    -994.531     822.017
  H      219.796    -997.893     823.229
  H      222.593    -997.084     823.188
  H      222.038    -994.949     824.153
  H      219.946    -996.457     825.788
  H      220.662    -996.843     817.126
  H      218.709    -994.220     825.536
  H      220.806    -995.106     817.291
  H      220.043    -994.234     826.703
  P      224.050    -995.480     825.770
  C      224.077    -993.679     827.681
  O      224.522    -994.945     827.235
  O      224.007    -994.159     824.893
  O      224.951    -996.508     825.181
  H      224.738    -994.147     824.269
  H      224.064    -993.670     828.758
  H      223.082    -993.456     827.301
  H      224.771    -992.902     827.316
  H      217.156    -992.973     821.850
  H      216.934    -991.668     822.991
  H      216.966    -993.323     823.551

 3  4  5  6  7  8  9  10  11  12  13  24  27  28  29  30  32 0
 6-311+G(2d,p)
 ****
 34  35 0
 6-311+G(2d,p)
 ****
 1  2  14  15  16  17  18  19  20  21  22  23  25  26 0
 3-21G
 ****
 31  33  36  37  38  39  40  41  42  43  44  45  46 0
 3-21G
 ****


