%nproc=1
%NoSave
%Mem=1900MB
#P OB98/GEN NMR

erre ene a

0 1
  C      -78.936    -150.676    -293.802
  O      -79.414    -149.422    -294.296
  P      -78.349    -148.221    -294.329
  C      -77.361    -146.521    -292.639
  O      -78.258    -147.605    -292.846
  C      -77.143    -146.256    -291.143
  O      -78.363    -145.756    -290.519
  C      -76.711    -147.497    -290.354
  O      -75.820    -147.048    -289.324
  C      -78.009    -147.953    -289.714
  O      -77.773    -148.822    -288.608
  C      -78.625    -146.601    -289.373
  N      -82.075    -146.987    -285.705
  C      -80.697    -147.058    -285.642
  N      -80.155    -147.203    -284.414
  N      -79.919    -146.988    -286.693
  C      -80.598    -146.804    -287.852
  C      -81.959    -146.702    -288.041
  C      -82.808    -146.813    -286.875
  O      -84.030    -146.752    -286.875
  N      -82.265    -146.486    -289.365
  C      -81.088    -146.527    -289.973
  N      -80.048    -146.660    -289.093
  O      -79.106    -147.087    -295.166
  O      -77.043    -148.595    -294.949
  H      -78.634    -148.976    -288.162
  H      -78.782    -147.078    -296.086
  H      -82.627    -147.062    -284.868
  H      -80.939    -146.439    -291.035
  H      -78.159    -146.139    -288.493
  H      -78.625    -148.493    -290.448
  H      -80.694    -147.212    -283.564
  H      -76.235    -148.277    -290.956
  H      -79.144    -147.217    -284.335
  H      -76.381    -145.472    -291.044
  H      -77.757    -145.618    -293.110
  H      -76.415    -146.738    -293.144
  P      -74.268    -147.416    -289.468
  C      -72.847    -149.548    -289.084
  O      -74.058    -148.863    -288.820
  O      -73.561    -146.428    -288.420
  O      -73.706    -147.228    -290.840
  H      -72.716    -146.107    -288.793
  H      -72.644    -150.235    -288.260
  H      -72.005    -148.858    -289.187
  H      -72.956    -150.124    -290.008
  H      -79.728    -151.395    -293.827
  H      -78.595    -150.556    -292.795
  H      -78.127    -151.016    -294.414

 3  4  5  6  7  8  9  10  11  12  23  26  30  31 0
 6-311+G(2d,p)
 ****
 33  35  36  37  38 0
 6-311+G(2d,p)
 ****
 1  2  13  14  15  16  17  18  19  20  21  22  24  25 0
 3-21G
 ****
 27  28  29  32  34  39  40  41  42  43  44  45  46  47  48  49 0
 3-21G
 ****


