%nproc=1
%NoSave
%Mem=1900MB
#P OB98/GEN NMR

erre ene a

0 1
  C     -258.453     663.037    -240.696
  O     -257.907     663.380    -239.443
  H     -257.695     663.206    -241.471
  H     -259.319     663.676    -240.917
  H     -258.751     661.987    -240.723
  P     -258.860     663.164    -238.164
  C     -260.150     664.889    -236.696
  O     -259.710     664.518    -238.002
  C     -260.879     666.222    -236.755
  O     -259.949     667.268    -237.138
  C     -261.998     666.274    -237.784
  O     -263.184     665.651    -237.310
  C     -262.153     667.781    -237.982
  O     -262.977     668.373    -236.974
  C     -260.712     668.283    -237.841
  N     -259.558     671.981    -241.161
  C     -260.114     672.016    -239.926
  N     -260.375     670.977    -239.101
  C     -259.981     669.813    -239.650
  C     -259.403     669.624    -240.901
  C     -259.191     670.788    -241.669
  N     -258.657     670.751    -242.941
  N     -259.182     668.285    -241.139
  C     -259.605     667.675    -240.051
  N     -260.096     668.560    -239.124
  O     -257.829     663.215    -236.934
  O     -259.663     661.901    -238.169
  H     -262.470     668.326    -236.138
  H     -257.558     662.307    -236.695
  H     -260.394     672.995    -239.558
  H     -259.596     666.602    -239.884
  H     -260.647     669.195    -237.245
  H     -262.610     668.007    -238.953
  H     -261.680     665.817    -238.731
  H     -261.253     666.463    -235.755
  H     -259.275     664.984    -236.041
  H     -260.809     664.098    -236.301
  H     -258.552     671.614    -243.444
  H     -258.479     669.854    -243.371
  P     -264.000     664.702    -238.308
  C     -266.279     665.100    -239.518
  O     -265.013     665.631    -239.141
  O     -264.968     663.867    -237.333
  O     -263.155     663.801    -239.152
  H     -264.604     662.989    -237.172
  H     -266.828     665.840    -240.062
  H     -266.826     664.824    -238.641
  H     -266.135     664.237    -240.135

 6  7  8  9  10  11  12  13  14  15  25  28  32  33  34  35 0
 6-311+G(2d,p)
 ****
 36  37  40 0
 6-311+G(2d,p)
 ****
 1  2  3  4  5  16  17  18  19  20  21  22  23  24 0
 3-21G
 ****
 26  27  29  30  31  38  39 41  42  43  44  45  46  47  48 0
 3-21G
 ****


