%nproc=1
%NoSave
%Mem=1900MB
#P OB98/GEN NMR

erre ene a

0 1
  C      113.759     -26.458      55.612
  O      114.413     -27.096      54.534
  H      112.964     -25.824      55.212
  H      114.468     -25.831      56.159
  H      113.318     -27.199      56.284
  P      115.499     -28.220      54.913
  C      117.629     -26.876      54.178
  O      116.850     -27.418      55.230
  C      118.763     -26.017      54.741
  O      119.731     -25.779      53.689
  C      118.305     -24.659      55.271
  O      119.078     -24.339      56.429
  C      118.643     -23.703      54.141
  O      118.803     -22.364      54.606
  C      119.904     -24.353      53.554
  N      120.128     -23.973      52.161
  C      120.823     -22.781      51.938
  O      121.197     -22.095      52.890
  N      121.041     -22.370      50.647
  C      120.546     -23.054      49.663
  N      120.777     -22.584      48.407
  C      119.760     -24.289      49.852
  C      119.601     -24.692      51.112
  O      115.778     -28.894      53.488
  O      115.052     -29.170      55.972
  H      119.153     -21.824      53.862
  H      115.841     -28.253      52.761
  H      119.354     -24.816      49.001
  H      119.044     -25.593      51.342
  H      120.790     -24.069      54.136
  H      117.837     -23.705      53.397
  H      117.245     -24.626      55.519
  H      119.280     -26.593      55.517
  H      121.304     -21.723      48.321
  H      117.005     -26.267      53.518
  H      120.397     -23.005      47.573
  H      118.036     -27.707      53.595
  P      118.328     -23.958      57.791
  C      118.515     -21.395      57.570
  O      117.645     -22.515      57.623
  O      119.119     -24.140      59.043
  O      117.054     -24.939      57.782
  H      116.903     -25.242      58.699
  H      117.939     -20.501      57.457
  H      119.179     -21.498      56.738
  H      119.083     -21.342      58.475

 6  7  8  9  10  11  12  13  14  15  16  26  30  31  32  33  35 0
 6-311+G(2d,p)
 ****
 37  38 0
 6-311+G(2d,p)
 ****
 1  2  3  4  5  17  18  19  20  21  22  23  24  25 0
 3-21G
 ****
 27  28  29  34  36  39  40  41  42  43  44  45  46 0
 3-21G
 ****


