%nproc=1
%NoSave
%Mem=1900MB
#P OB98/GEN NMR

erre ene a

0 1
  C      274.796    -403.080     171.743
  O      273.685    -402.238     171.469
  P      272.462    -402.889     170.654
  C      270.389    -402.373     172.164
  O      271.164    -402.022     171.027
  C      269.711    -401.125     172.729
  O      270.672    -400.290     173.403
  C      269.045    -400.249     171.676
  O      267.767    -400.760     171.338
  C      268.997    -398.900     172.389
  O      267.886    -398.838     173.301
  C      270.333    -398.894     173.151
  N      273.298    -394.800     173.048
  C      272.172    -395.065     173.806
  N      271.817    -394.115     174.701
  N      271.464    -396.157     173.706
  C      271.930    -397.012     172.760
  C      273.025    -396.854     171.937
  C      273.823    -395.660     172.094
  O      274.884    -395.428     171.515
  N      273.168    -397.926     171.086
  C      272.188    -398.733     171.427
  N      271.422    -398.240     172.446
  O      272.229    -404.282     171.400
  O      272.694    -403.049     169.183
  H      267.052    -398.980     172.810
  H      272.656    -405.013     170.911
  H      273.810    -393.944     173.181
  H      272.001    -399.706     170.976
  H      270.247    -398.407     174.131
  H      268.879    -398.066     171.694
  H      272.299    -393.235     174.817
  H      269.676    -400.172     170.783
  H      270.992    -394.291     175.269
  H      268.973    -401.455     173.477
  H      271.042    -402.801     172.928
  H      269.645    -403.124     171.873
  P      267.359    -400.762     169.783
  C      266.433    -403.195     169.705
  O      266.156    -401.807     169.616
  O      268.603    -401.496     169.080
  O      267.124    -399.411     169.198
  H      268.767    -401.095     168.208
  H      265.548    -403.709     170.087
  H      267.282    -403.398     170.363
  H      266.662    -403.573     168.699
  H      275.535    -402.530     172.287
  H      275.216    -403.428     170.822
  H      274.474    -403.917     172.327

 3  4  5  6  7  8  9  10  11  12  23  26  30  31 0
 6-311+G(2d,p)
 ****
 33  35  36  37  38 0
 6-311+G(2d,p)
 ****
 1  2  13  14  15  16  17  18  19  20  21  22  24  25 0
 3-21G
 ****
 27  28  29  32  34  39  40  41  42  43  44  45  46  47  48  49 0
 3-21G
 ****


