%nproc=1
%NoSave
%Mem=1900MB
#P OB98/GEN NMR

erre ene a

0 1
  C      834.088    -899.008     325.271
  O      833.303    -898.238     326.166
  P      833.677    -896.708     326.441
  C      831.252    -895.948     326.041
  O      832.612    -895.778     325.663
  C      830.929    -895.038     327.240
  O      831.457    -893.708     327.023
  C      829.442    -894.848     327.468
  O      828.867    -895.968     328.080
  C      829.439    -893.568     328.320
  O      829.714    -893.888     329.704
  C      830.609    -892.768     327.709
  N      828.020    -888.398     327.386
  C      828.160    -889.268     328.402
  N      828.835    -890.438     328.397
  C      829.399    -890.668     327.178
  C      829.301    -889.868     326.052
  C      828.609    -888.658     326.191
  N      828.498    -887.718     325.185
  N      829.967    -890.448     324.979
  C      830.450    -891.578     325.479
  N      830.166    -891.738     326.793
  O      835.112    -896.338     326.194
  O      833.292    -896.458     327.963
  H      828.844    -894.188     330.083
  H      834.093    -896.218     328.483
  H      827.686    -889.018     329.320
  H      831.001    -892.358     324.884
  H      831.227    -892.318     328.480
  H      828.483    -893.058     328.287
  H      828.928    -894.628     326.502
  H      831.412    -895.458     328.130
  H      831.094    -896.998     326.325
  H      828.092    -886.808     325.447
  H      829.158    -887.758     324.414
  H      830.594    -895.728     325.195
  P      827.295    -896.258     327.993
  C      827.589    -897.228     325.635
  O      826.908    -896.268     326.415
  O      826.446    -895.368     328.840
  O      827.139    -897.778     328.403
  H      826.288    -897.898     328.870
  H      828.590    -896.878     325.436
  H      827.033    -897.348     324.693
  H      827.616    -898.188     326.160
  H      833.692    -900.000     325.212
  H      835.097    -899.047     325.625
  H      834.068    -898.557     324.301

 3  4  5  6  7  8  9  10  11  12  22  25  29  30  31  32 0
 6-311+G(2d,p)
 ****
 33  36  37 0
 6-311+G(2d,p)
 ****
 1  2  13  14  15  16  17  18  19  20  21  23  24  26 0
 3-21G
 ****
 27  28  34  35  38  39  40  41  42  43  44  45  46  47  48 0
 3-21G
 ****


