%nproc=1
%NoSave
%Mem=1900MB
#P OB98/GEN NMR

erre ene a

0 1
  C       53.563    -768.066    -235.238
  O       54.315    -766.932    -235.630
  H       52.552    -767.972    -235.641
  H       53.500    -768.119    -234.146
  H       54.015    -768.982    -235.634
  P       55.841    -766.825    -235.156
  C       55.237    -765.747    -232.877
  O       55.763    -766.881    -233.550
  C       56.085    -765.429    -231.641
  O       56.077    -766.528    -230.701
  C       57.560    -765.170    -231.918
  O       57.811    -763.916    -232.525
  C       58.110    -765.256    -230.503
  O       57.791    -764.048    -229.791
  C       57.324    -766.464    -229.959
  N       58.060    -767.727    -230.083
  C       58.279    -768.440    -228.900
  O       57.873    -768.012    -227.816
  N       58.989    -769.624    -228.961
  C       59.455    -770.029    -230.099
  N       60.159    -771.203    -230.099
  C       59.268    -769.297    -231.367
  C       58.564    -768.164    -231.296
  O       56.626    -765.680    -235.719
  O       56.475    -768.257    -235.498
  H       58.145    -763.311    -230.313
  H       57.426    -768.240    -235.237
  H       59.710    -769.666    -232.283
  H       58.389    -767.575    -232.177
  H       57.058    -766.313    -228.900
  H       59.198    -765.369    -230.473
  H       57.993    -765.988    -232.509
  H       55.611    -764.568    -231.131
  H       60.276    -771.679    -229.219
  H       54.198    -765.963    -232.602
  H       60.628    -771.557    -230.929
  H       55.258    -764.875    -233.540
  P       59.119    -763.821    -233.471
  C       59.875    -761.499    -232.530
  O       60.170    -762.883    -232.700
  O       58.608    -762.919    -234.699
  O       59.685    -765.140    -233.919
  H       58.366    -763.485    -235.457
  H       60.675    -761.026    -232.000
  H       58.967    -761.394    -231.974
  H       59.761    -761.038    -233.489

 6  7  8  9  10  11  12  13  14  15  16  26  30  31  32  33  35 0
 6-311+G(2d,p)
 ****
 37  38 0
 6-311+G(2d,p)
 ****
 1  2  3  4  5  17  18  19  20  21  22  23  24  25 0
 3-21G
 ****
 27  28  29  34  36  39  40  41  42  43  44  45  46 0
 3-21G
 ****


