%nproc=1
%NoSave
%Mem=1900MB
#P OB98/GEN NMR

erre ene a

0 1
  C      405.065     149.972    1339.415
  O      404.803     151.321    1339.031
  P      403.730     151.729    1337.905
  C      402.726     153.695    1339.284
  O      402.457     152.451    1338.616
  C      401.576     154.053    1340.249
  O      401.496     153.104    1341.334
  C      401.712     155.416    1340.911
  O      401.404     156.466    1340.005
  C      400.788     155.268    1342.106
  O      399.402     155.520    1341.695
  C      400.964     153.776    1342.481
  N      401.828     153.643    1343.661
  C      401.189     153.698    1344.907
  O      399.989     153.948    1344.992
  N      401.972     153.500    1346.038
  C      403.241     153.340    1345.932
  N      403.947     153.148    1347.094
  C      403.969     153.325    1344.646
  C      403.200     153.501    1343.564
  O      403.353     150.610    1336.982
  O      404.407     152.932    1337.089
  H      399.123     154.713    1341.176
  H      404.084     152.905    1336.156
  H      405.039     153.223    1344.585
  H      403.646     153.495    1342.566
  H      400.003     153.325    1342.700
  H      401.005     155.988    1342.915
  H      402.761     155.553    1341.290
  H      400.624     154.007    1339.690
  H      403.422     153.141    1347.955
  H      402.813     154.466    1338.525
  H      404.952     153.002    1347.097
  H      403.688     153.616    1339.851
  P      402.576     157.220    1339.186
  C      401.488     156.712    1336.894
  O      402.629     156.573    1337.712
  O      403.906     157.307    1339.895
  O      401.962     158.680    1338.896
  H      402.676     159.327    1338.883
  H      401.775     156.589    1335.849
  H      401.019     157.700    1337.054
  H      400.760     155.937    1337.160
  H      405.815     149.958    1340.178
  H      405.410     149.420    1338.566
  H      404.167     149.527    1339.789

 3  4  5  6  7  8  9  10  11  12  13  23  27  28  29  30  32 0
 6-311+G(2d,p)
 ****
 34  35 0
 6-311+G(2d,p)
 ****
 1  2  14  15  16  17  18  19  20  21  22  24  25  26 0
 3-21G
 ****
 31  33  36  37  38  39  40  41  42  43  44  45  46 0
 3-21G
 ****


