%nproc=1
%NoSave
%Mem=1900MB
#P OB98/GEN NMR

erre ene a

0 1
  C      547.476     204.579     889.443
  O      548.008     204.880     888.166
  H      546.725     203.788     889.335
  H      546.992     205.460     889.870
  H      548.266     204.224     890.109
  P      549.136     206.012     888.049
  C      547.485     207.920     888.699
  O      548.311     207.352     887.685
  C      547.059     209.322     888.300
  O      548.126     210.278     888.469
  C      546.636     209.476     886.836
  O      545.376     208.900     886.547
  C      546.620     210.989     886.724
  O      545.450     211.513     887.359
  C      547.911     211.358     887.510
  N      549.083     211.527     886.642
  C      549.021     212.560     885.703
  O      548.032     213.276     885.634
  N      550.086     212.729     884.841
  C      551.117     211.927     884.916
  N      552.130     212.156     884.043
  C      551.196     210.825     885.884
  C      550.156     210.671     886.698
  O      550.289     205.706     887.151
  O      549.563     206.312     889.567
  H      544.694     211.313     886.775
  H      550.271     207.000     889.550
  H      552.057     210.159     885.873
  H      550.158     209.862     887.436
  H      547.769     212.280     888.083
  H      546.620     211.346     885.693
  H      547.419     209.073     886.166
  H      546.239     209.633     888.972
  H      552.052     212.924     883.390
  H      548.059     207.925     889.635
  H      552.945     211.537     883.969
  H      546.596     207.302     888.837
  P      545.280     207.966     885.227
  C      545.017     210.033     883.650
  O      544.482     208.816     884.125
  O      544.257     206.817     885.672
  O      546.602     207.418     884.762
  H      544.744     206.001     885.945
  H      544.353     210.456     882.926
  H      545.969     209.851     883.197
  H      545.135     210.714     884.467

 6  7  8  9  10  11  12  13  14  15  16  26  30  31  32  33  35 0
 6-311+G(2d,p)
 ****
 37  38 0
 6-311+G(2d,p)
 ****
 1  2  3  4  5  17  18  19  20  21  22  23  24  25 0
 3-21G
 ****
 27  28  29  34  36  39  40  41  42  43  44  45  46 0
 3-21G
 ****


