%nproc=1
%NoSave
%Mem=1900MB
#P OB98/GEN NMR

erre ene a

0 1
  C     -336.705     126.170    -307.164
  O     -338.039     125.750    -306.957
  H     -336.276     126.448    -306.198
  H     -336.673     127.036    -307.827
  H     -336.112     125.353    -307.587
  P     -338.933     125.391    -308.240
  C     -339.386     123.000    -307.366
  O     -339.948     124.237    -307.786
  C     -340.347     122.256    -306.424
  O     -340.386     122.959    -305.145
  C     -341.794     122.176    -306.948
  O     -342.367     120.970    -306.433
  C     -342.415     123.394    -306.286
  O     -343.819     123.352    -306.354
  C     -341.768     123.321    -304.901
  N     -341.880     124.567    -304.163
  C     -342.927     124.645    -303.236
  O     -343.702     123.705    -303.100
  N     -343.093     125.808    -302.527
  C     -342.321     126.827    -302.768
  N     -342.548     127.951    -302.029
  C     -341.238     126.800    -303.772
  C     -341.075     125.651    -304.426
  O     -338.181     125.105    -309.497
  O     -339.889     126.664    -308.410
  H     -344.213     124.186    -306.008
  H     -339.587     127.208    -309.158
  H     -340.639     127.680    -303.938
  H     -340.306     125.540    -305.185
  H     -342.217     122.517    -304.298
  H     -342.104     124.312    -306.803
  H     -341.853     122.193    -308.041
  H     -339.946     121.254    -306.223
  H     -343.303     127.924    -301.361
  H     -338.452     123.221    -306.845
  H     -342.023     128.803    -302.142
  H     -339.167     122.370    -308.238
  P     -343.037     119.855    -307.369
  C     -341.575     117.765    -306.985
  O     -342.812     118.406    -306.716
  O     -342.634     119.942    -308.802
  O     -344.621     120.089    -307.213
  H     -345.058     119.834    -308.049
  H     -341.552     116.814    -306.495
  H     -340.772     118.372    -306.622
  H     -341.468     117.625    -308.040

 6  7  8  9  10  11  12  13  14  15  16  26  30  31  32  33  35 0
 6-311+G(2d,p)
 ****
 37  38 0
 6-311+G(2d,p)
 ****
 1  2  3  4  5  17  18  19  20  21  22  23  24  25 0
 3-21G
 ****
 27  28  29  34  36  39  40  41  42  43  44  45  46 0
 3-21G
 ****


