%nproc=1
%NoSave
%Mem=1900MB
#P OB98/GEN NMR

erre ene a

0 1
  C       -1.638       2.789      10.178
  O       -0.582       3.736      10.186
  P        0.795       3.313      10.891
  C        1.597       3.124      13.343
  O        0.484       3.190      12.462
  C        1.143       2.872      14.775
  O        0.333       1.665      14.806
  C        2.291       2.683      15.779
  O        1.993       3.407      16.980
  C        2.234       1.201      16.108
  O        2.785       0.917      17.389
  C        0.731       0.949      15.992
  N       -0.431      -3.175      18.664
  C       -0.350      -1.857      19.066
  N       -0.552      -1.616      20.380
  N       -0.091      -0.865      18.257
  C        0.059      -1.250      16.966
  C       -0.007      -2.521      16.443
  C       -0.236      -3.616      17.361
  O       -0.229      -4.813      17.082
  N        0.180      -2.512      15.085
  C        0.364      -1.240      14.786
  N        0.347      -0.441      15.901
  O        1.676       4.645      10.780
  O        1.494       2.150      10.277
  H        3.572       1.484      17.494
  H        2.517       4.447      10.326
  H       -0.617      -3.902      19.332
  H        0.543      -0.859      13.788
  H        0.202       1.386      16.848
  H        2.797       0.642      15.353
  H       -0.792      -2.328      21.051
  H        3.273       2.984      15.400
  H       -0.520      -0.653      20.691
  H        0.492       3.699      15.085
  H        2.145       4.071      13.301
  H        2.262       2.319      13.012
  P        3.058       4.532      17.406
  C        5.286       4.474      18.753
  O        4.273       3.744      18.088
  O        2.345       5.271      18.631
  O        3.421       5.470      16.303
  H        2.686       6.180      18.726
  H        5.028       5.531      18.864
  H        6.214       4.395      18.182
  H        5.441       4.043      19.745
  H       -2.487       3.206       9.678
  H       -1.903       2.542      11.185
  H       -1.321       1.905       9.665

 3  4  5  6  7  8  9  10  11  12  23  26  30  31  33  0
 6-311+G(2d,p)
 ****
 35  36  37  38 0
 6-311+G(2d,p)
 ****
 1  2  13  14  15  16  17  18  19  20  21  22  24  25  27  28  29 0
 3-21G
 ****
 32  34  39  40  41  42  43  44  45  46  47  48  49 0
 3-21G
 ****


