%nproc=1
%NoSave
%Mem=1900MB
#P OB98/GEN NMR

erre ene a

0 1
  C      -34.970      35.979     -10.780
  O      -35.216      35.224     -11.947
  P      -36.668      34.712     -12.371
  C      -36.611      32.558     -10.920
  O      -37.248      33.804     -11.178
  C      -37.091      31.898      -9.618
  O      -36.888      32.805      -8.517
  C      -38.597      31.631      -9.687
  O      -39.086      30.469     -10.325
  C      -39.101      31.844      -8.266
  O      -39.253      30.619      -7.548
  C      -38.012      32.708      -7.628
  N      -40.604      35.576      -4.350
  C      -40.139      34.285      -4.197
  N      -40.589      33.621      -3.111
  N      -39.332      33.701      -5.044
  C      -39.048      34.459      -6.129
  C      -39.437      35.753      -6.384
  C      -40.294      36.401      -5.420
  O      -40.795      37.514      -5.560
  N      -39.020      36.178      -7.618
  C      -38.412      35.127      -8.131
  N      -38.440      34.048      -7.281
  O      -36.829      34.234     -13.777
  O      -37.537      36.064     -12.219
  H      -39.726      30.813      -6.719
  H      -38.226      36.048     -12.911
  H      -41.289      35.947      -3.703
  H      -37.971      35.085      -9.120
  H      -37.641      32.243      -6.706
  H      -40.089      32.321      -8.273
  H      -41.322      33.987      -2.519
  H      -39.036      32.454     -10.267
  H      -40.408      32.625      -3.056
  H      -36.497      31.010      -9.386
  H      -35.533      32.742     -10.884
  H      -36.792      31.876     -11.754
  P      -40.517      30.296     -11.018
  C      -41.391      28.847      -9.100
  O      -41.601      30.014      -9.875
  O      -40.423      28.887     -11.774
  O      -40.885      31.378     -11.979
  H      -41.083      28.854     -12.491
  H      -42.317      28.593      -8.580
  H      -40.608      29.036      -8.359
  H      -41.095      28.005      -9.732
  H      -33.926      36.202     -10.713
  H      -35.270      35.416      -9.921
  H      -35.528      36.891     -10.821

 3  4  5  6  7  8  9  10  11  12  23  26  30  31 0
 6-311+G(2d,p)
 ****
 33  35  36  37  38 0
 6-311+G(2d,p)
 ****
 1  2  13  14  15  16  17  18  19  20  21  22  24  25 0
 3-21G
 ****
 27  28  29  32  34  39  40  41  42  43  44  45  46  47  48  49 0
 3-21G
 ****


