%nproc=1
%NoSave
%Mem=1900MB
#P OB98/GEN NMR

erre ene a

0 1
  C       97.296     230.462     151.270
  O       96.754     231.500     150.478
  H       96.491     229.778     151.551
  H       97.743     230.872     152.179
  H       98.049     229.910     150.703
  P       97.768     232.672     150.050
  C       98.359     231.060     148.084
  O       98.832     231.920     149.110
  C       98.683     231.659     146.720
  O       98.281     230.764     145.662
  C       97.970     232.976     146.432
  O       98.578     234.086     147.072
  C       98.118     233.042     144.924
  O       99.463     233.430     144.587
  C       97.851     231.570     144.532
  N       96.447     231.306     144.215
  C       95.908     231.999     143.124
  O       96.595     232.793     142.485
  N       94.587     231.799     142.802
  C       93.869     230.974     143.498
  N       92.564     230.824     143.142
  C       94.401     230.211     144.643
  C       95.680     230.424     144.943
  O       98.612     232.945     151.382
  O       97.147     233.888     149.452
  H       99.602     234.321     144.959
  H       99.353     233.568     151.186
  H       93.760     229.542     145.199
  H       96.138     229.900     145.774
  H       98.465     231.278     143.671
  H       97.447     233.767     144.458
  H       96.903     232.918     146.677
  H       99.774     231.775     146.653
  H       92.212     231.407     142.394
  H       97.277     230.947     148.200
  H       91.890     230.350     143.729
  H       98.832     230.077     148.170
  P       98.197     235.551     146.540
  C       95.839     235.706     147.616
  O       96.597     235.607     146.419
  O       98.678     235.518     145.015
  O       98.820     236.681     147.300
  H       99.069     236.371     144.750
  H       94.796     235.733     147.377
  H       96.109     236.601     148.136
  H       96.040     234.858     148.237

 6  7  8  9  10  11  12  13  14  15  16  26  30  31  32  33  35 0
 6-311+G(2d,p)
 ****
 37  38 0
 6-311+G(2d,p)
 ****
 1  2  3  4  5  17  18  19  20  21  22  23  24  25 0
 3-21G
 ****
 27  28  29  34  36  39  40  41  42  43  44  45  46 0
 3-21G
 ****


