%nproc=1
%NoSave
%Mem=1900MB
#P OB98/GEN NMR

erre ene a

0 1
  C     -162.608     296.590      36.935
  O     -162.064     296.002      35.767
  P     -163.019     295.366      34.644
  C     -161.742     293.130      34.568
  O     -162.981     293.776      34.860
  C     -161.908     291.616      34.581
  O     -160.775     291.012      33.908
  C     -161.967     291.028      35.990
  O     -162.880     289.927      35.993
  C     -160.572     290.485      36.231
  O     -160.582     289.413      37.185
  C     -160.151     290.081      34.811
  N     -155.589     288.213      36.263
  C     -156.847     287.909      36.660
  N     -158.017     288.461      36.247
  C     -157.789     289.385      35.299
  C     -156.560     289.801      34.800
  C     -155.417     289.176      35.326
  N     -154.133     289.478      34.925
  N     -156.725     290.799      33.850
  C     -158.026     290.966      33.768
  N     -158.717     290.129      34.613
  O     -162.742     295.812      33.250
  O     -164.498     295.758      35.115
  H     -161.067     288.663      36.780
  H     -165.049     295.977      34.341
  H     -156.938     287.125      37.399
  H     -158.530     291.677      33.125
  H     -160.501     289.070      34.557
  H     -159.926     291.283      36.626
  H     -162.264     291.759      36.746
  H     -162.808     291.356      34.013
  H     -161.014     293.425      35.328
  H     -153.392     288.889      35.268
  H     -154.019     290.061      34.098
  H     -161.376     293.465      33.590
  P     -163.546     289.561      37.412
  C     -163.239     287.008      36.964
  O     -162.947     288.118      37.787
  O     -165.027     289.693      37.394
  O     -162.790     290.593      38.381
  H     -161.925     290.864      38.009
  H     -162.774     286.119      37.399
  H     -162.831     287.162      35.960
  H     -164.319     286.852      36.909
  H     -161.815     296.953      37.554
  H     -163.173     295.858      37.473
  H     -163.247     297.403      36.660

 3  4  5  6  7  8  9  10  11  12  22  25  29  30  31  32 0
 6-311+G(2d,p)
 ****
 33  36  37 0
 6-311+G(2d,p)
 ****
 1  2  13  14  15  16  17  18  19  20  21  23  24  26 0
 3-21G
 ****
 27  28  34  35  38  39  40  41  42  43  44  45  46  47  48 0
 3-21G
 ****


