%nproc=1
%NoSave
%Mem=1900MB
#P OB98/GEN NMR

erre ene a

0 1
  C     -206.505     197.485     251.044
  O     -205.776     196.487     250.328
  P     -205.920     196.419     248.733
  C     -206.630     193.943     248.611
  O     -205.641     194.909     248.268
  C     -206.073     192.524     248.471
  O     -205.158     192.204     249.539
  C     -207.148     191.452     248.524
  O     -207.887     191.411     247.317
  C     -206.321     190.215     248.821
  O     -205.738     189.683     247.616
  C     -205.209     190.774     249.740
  N     -205.403     190.440     251.145
  C     -204.381     190.834     252.014
  O     -203.371     191.391     251.573
  N     -204.522     190.571     253.357
  C     -205.582     189.968     253.787
  N     -205.668     189.737     255.125
  C     -206.674     189.525     252.902
  C     -206.519     189.782     251.604
  O     -205.183     197.469     247.970
  O     -207.508     196.557     248.518
  H     -205.259     188.875     247.884
  H     -207.674     196.991     247.659
  H     -207.548     189.025     253.309
  H     -207.274     189.490     250.879
  H     -204.231     190.389     249.434
  H     -206.920     189.413     249.265
  H     -207.829     191.653     249.367
  H     -205.536     192.464     247.516
  H     -204.905     190.040     255.706
  H     -207.503     194.067     247.961
  H     -206.481     189.318     255.560
  H     -206.971     194.138     249.633
  P     -209.459     191.717     247.395
  C     -210.195     190.056     245.544
  O     -210.090     191.404     245.954
  O     -209.513     193.318     247.478
  O     -210.163     191.092     248.551
  H     -210.268     193.592     248.033
  H     -210.911     189.990     244.715
  H     -210.547     189.414     246.358
  H     -209.222     189.699     245.191
  H     -206.300     197.395     252.090
  H     -207.553     197.352     250.873
  H     -206.208     198.455     250.705

 3  4  5  6  7  8  9  10  11  12  13  23  27  28  29  30  32 0
 6-311+G(2d,p)
 ****
 34  35 0
 6-311+G(2d,p)
 ****
 1  2  14  15  16  17  18  19  20  21  22  24  25  26 0
 3-21G
 ****
 31  33  36  37  38  39  40  41  42  43  44  45  46 0
 3-21G
 ****


