%nproc=1
%NoSave
%Mem=1900MB
#P OB98/GEN NMR

erre ene a

0 1
  C     -343.620     112.460      69.021
  O     -343.396     112.354      67.631
  H     -344.446     111.799      69.294
  H     -343.889     113.487      69.280
  H     -342.727     112.157      69.575
  P     -342.198     113.226      67.012
  C     -343.948     114.664      65.727
  O     -342.794     113.836      65.646
  C     -344.870     114.412      64.530
  O     -344.389     115.173      63.394
  C     -344.935     112.942      64.114
  O     -346.289     112.592      63.820
  C     -344.081     112.871      62.861
  O     -344.464     111.797      62.004
  C     -344.256     114.276      62.274
  N     -343.130     114.655      61.423
  C     -343.081     114.075      60.152
  O     -343.950     113.278      59.799
  N     -342.021     114.368      59.329
  C     -341.062     115.127      59.763
  N     -340.029     115.363      58.910
  C     -341.050     115.720      61.112
  C     -342.105     115.451      61.881
  O     -341.169     112.114      66.509
  O     -341.601     114.235      67.936
  H     -343.956     111.882      61.167
  H     -340.287     112.507      66.297
  H     -340.220     116.333      61.435
  H     -342.178     115.843      62.889
  H     -345.178     114.335      61.682
  H     -343.031     112.713      63.144
  H     -344.556     112.265      64.879
  H     -345.864     114.803      64.768
  H     -340.068     114.930      57.996
  H     -343.635     115.712      65.736
  H     -339.217     115.911      59.151
  H     -344.486     114.440      66.654
  P     -347.178     112.117      65.073
  C     -347.028     109.573      64.596
  O     -347.861     110.718      64.675
  O     -348.397     113.152      65.081
  O     -346.429     112.104      66.363
  H     -348.244     113.850      65.746
  H     -347.616     108.722      64.323
  H     -346.569     109.399      65.547
  H     -346.270     109.734      63.858

 6  7  8  9  10  11  12  13  14  15  16  26  30  31  32  33  35 0
 6-311+G(2d,p)
 ****
 37  38 0
 6-311+G(2d,p)
 ****
 1  2  3  4  5  17  18  19  20  21  22  23  24  25 0
 3-21G
 ****
 27  28  29  34  36  39  40  41  42  43  44  45  46 0
 3-21G
 ****


