%nproc=1
%NoSave
%Mem=1900MB
#P OB98/GEN NMR

erre ene a

0 1
  C      -18.655    -534.311    -897.883
  O      -19.575    -533.334    -897.433
  H      -18.830    -534.482    -898.953
  H      -18.818    -535.248    -897.343
  H      -17.627    -533.970    -897.743
  P      -19.434    -532.863    -895.903
  C      -19.785    -530.315    -896.183
  O      -18.855    -531.360    -895.933
  C      -19.135    -528.958    -895.893
  O      -18.820    -528.879    -894.453
  C      -17.821    -528.693    -896.653
  O      -17.760    -527.296    -896.963
  C      -16.758    -528.998    -895.623
  O      -15.502    -528.380    -895.903
  C      -17.442    -528.459    -894.353
  N      -13.251    -528.312    -891.583
  C      -13.592    -527.634    -892.733
  N      -12.662    -526.779    -893.223
  N      -14.730    -527.777    -893.353
  C      -15.565    -528.638    -892.733
  C      -15.361    -529.377    -891.593
  C      -14.073    -529.224    -890.933
  O      -13.710    -529.824    -889.923
  N      -16.446    -530.149    -891.293
  C      -17.321    -529.888    -892.243
  N      -16.837    -528.975    -893.143
  O      -18.190    -533.735    -895.383
  O      -20.653    -533.064    -895.053
  H      -14.874    -528.659    -895.213
  H      -18.510    -534.558    -894.963
  H      -12.359    -528.179    -891.153
  H      -18.308    -530.325    -892.343
  H      -17.414    -527.375    -894.303
  H      -16.596    -530.078    -895.553
  H      -11.778    -526.587    -892.783
  H      -17.710    -529.277    -897.573
  H      -12.909    -526.244    -894.053
  H      -19.869    -528.170    -896.083
  H      -20.654    -530.437    -895.543
  H      -20.103    -530.352    -897.233
  P      -17.305    -526.869    -898.443
  C      -19.619    -526.029    -899.293
  O      -18.574    -526.998    -899.403
  O      -16.385    -528.107    -898.903
  O      -16.570    -525.577    -898.503
  H      -15.731    -527.802    -899.553
  H      -20.390    -526.254    -900.000
  H      -19.225    -525.055    -899.494
  H      -20.024    -526.052    -898.303

 6  7  8  9  10  11  12  13  14  15  26  29  33  34 0
 6-311+G(2d,p)
 ****
 36  38  39  40  41 0
 6-311+G(2d,p)
 ****
 1  2  3  4  5  16  17  18  19  20  21  22  23  24  25 0
 3-21G
 ****
 27  28  30  31  32  35  37  42  43  44  45  46  47 0
 3-21G
 ****
 48  49 0
 3-21G
 ****


