%nproc=1
%NoSave
%Mem=1900MB
#P OB98/GEN NMR

erre ene a

0 1
  C      610.474     130.939     109.104
  O      609.944     130.566     107.847
  H      611.316     131.616     108.940
  H      610.829     130.062     109.657
  H      609.712     131.464     109.691
  P      608.879     129.362     107.803
  C      610.287     127.856     106.252
  O      609.749     128.030     107.561
  C      610.507     126.377     105.936
  O      610.861     126.197     104.548
  C      611.652     125.738     106.712
  O      611.436     125.635     108.102
  C      611.916     124.482     105.900
  O      611.026     123.415     106.231
  C      611.634     124.979     104.461
  N      612.857     125.179     103.696
  C      613.729     124.089     103.641
  O      613.520     123.024     104.219
  N      614.880     124.278     102.928
  C      615.261     125.438     102.311
  O      616.316     125.549     101.701
  C      614.319     126.566     102.431
  C      613.180     126.384     103.103
  O      607.745     129.529     106.833
  O      608.407     129.215     109.327
  H      611.147     122.727     105.554
  H      607.579     128.675     109.392
  H      615.515     123.498     102.867
  H      614.589     127.498     101.966
  H      612.466     127.200     103.203
  H      611.012     124.253     103.923
  H      612.931     124.106     106.042
  H      612.538     126.377     106.597
  H      609.567     125.847     106.112
  H      611.243     128.385     106.213
  H      609.608     128.305     105.523
  P      612.606     125.680     109.188
  C      612.774     123.067     109.054
  O      613.455     124.318     109.080
  O      612.232     126.169     110.552
  O      613.613     126.756     108.538
  H      614.027     127.243     109.278
  H      613.488     122.274     108.980
  H      612.118     123.036     108.210
  H      612.205     122.952     109.953

 6  7  8  9  10  11  12  13  14  15  16  26  31  32  33  34  35 0
 6-311+G(2d,p)
 ****
 36  37 0
 6-311+G(2d,p)
 ****
 1  2  3  4  5  17  18  19  20  21  22  23  24  25 0
 3-21G
 ****
 27  28  29  30  38  39  40  41  42  43  44  45 0
 3-21G
 ****


