%nproc=1
%NoSave
%Mem=1900MB
#P OB98/GEN NMR

erre ene a

0 1
  C     -102.557    -253.028    -116.718
  O     -101.295    -252.375    -116.764
  P     -101.034    -251.166    -117.774
  C      -98.717    -252.220    -118.407
  O      -99.921    -251.616    -118.825
  C      -97.917    -252.642    -119.650
  O      -98.462    -253.856    -120.204
  C      -97.956    -251.568    -120.734
  O      -96.821    -250.725    -120.644
  C      -98.000    -252.386    -122.012
  O      -96.678    -252.822    -122.373
  C      -98.865    -253.593    -121.578
  N     -100.332    -253.440    -121.599
  C     -101.143    -254.512    -121.227
  O     -100.709    -255.593    -120.845
  N     -102.497    -254.298    -121.335
  C     -103.093    -253.135    -121.723
  O     -104.275    -253.035    -122.046
  C     -102.204    -251.977    -121.837
  C     -100.887    -252.182    -121.793
  O     -100.276    -250.092    -116.866
  O     -102.256    -250.589    -118.418
  H      -96.143    -252.019    -122.518
  H     -100.893    -249.410    -116.549
  H     -103.086    -255.117    -121.202
  H     -102.649    -251.000    -122.006
  H     -100.206    -251.342    -121.909
  H      -98.628    -254.480    -122.173
  H      -98.366    -251.792    -122.847
  H      -98.885    -250.985    -120.655
  H      -96.879    -252.847    -119.351
  H      -98.930    -253.090    -117.779
  H      -98.131    -251.518    -117.803
  P      -96.582    -249.596    -121.753
  C      -94.073    -249.909    -121.324
  O      -95.095    -249.849    -122.301
  O      -96.879    -248.194    -121.325
  O      -97.531    -250.059    -122.956
  H      -98.378    -249.567    -122.924
  H      -93.154    -250.262    -121.799
  H      -94.347    -250.598    -120.522
  H      -93.898    -248.908    -120.911
  H     -102.530    -253.805    -115.982
  H     -102.775    -253.452    -117.676
  H     -103.316    -252.319    -116.461

 3  4  5  6  7  8  9  10  11  12  13  23  28  29  30  31  32 0
 6-311+G(2d,p)
 ****
 33  34 0
 6-311+G(2d,p)
 ****
 1  2  14  15  16  17  18  19  20  21  22  24  25  26  27 0
 3-21G
 ****
 35  36  37  38  39  40  41  42  43  44  45 0
 3-21G
 ****


