%nproc=1
%NoSave
%Mem=1900MB
#P OB98/GEN NMR

erre ene a

0 1
  C      302.492    -339.860    -157.287
  O      301.444    -340.765    -157.575
  H      302.885    -339.426    -158.211
  H      302.098    -339.058    -156.658
  H      303.292    -340.374    -156.746
  P      301.797    -341.964    -158.580
  C      303.212    -341.811    -160.746
  O      302.123    -341.290    -159.999
  C      303.558    -340.870    -161.895
  O      304.052    -339.616    -161.383
  C      304.652    -341.382    -162.826
  O      304.156    -342.341    -163.754
  C      305.054    -340.090    -163.521
  O      304.115    -339.789    -164.571
  C      304.929    -339.054    -162.393
  N      308.605    -335.491    -161.996
  C      307.456    -335.525    -162.709
  N      306.534    -336.507    -162.778
  C      306.879    -337.538    -161.987
  C      308.016    -337.644    -161.203
  C      308.908    -336.561    -161.230
  N      310.085    -336.542    -160.509
  N      308.024    -338.839    -160.518
  C      306.911    -339.447    -160.880
  N      306.192    -338.704    -161.774
  O      300.381    -342.674    -158.827
  O      302.815    -342.937    -158.084
  H      304.094    -340.571    -165.158
  H      300.520    -343.635    -158.916
  H      307.249    -334.641    -163.307
  H      306.592    -340.418    -160.521
  H      304.453    -338.130    -162.747
  H      306.047    -340.135    -163.975
  H      305.506    -341.771    -162.263
  H      302.635    -340.667    -162.453
  H      302.938    -342.789    -161.153
  H      310.577    -335.673    -160.412
  H      310.301    -337.347    -159.928
  H      304.072    -341.932    -160.079
  P      305.149    -343.525    -164.194
  C      307.573    -343.439    -165.112
  O      306.292    -342.823    -165.076
  O      304.289    -344.332    -165.277
  O      305.614    -344.407    -163.086
  H      304.596    -345.256    -165.324
  H      308.228    -342.865    -165.734
  H      307.482    -344.429    -165.508
  H      307.974    -343.487    -164.121

 6  7  8  9  10  11  12  13  14  15  25  28  32  33  34  35 0
 6-311+G(2d,p)
 ****
 36  39  40 0
 6-311+G(2d,p)
 ****
 1  2  3  4  5  16  17  18  19  20  21  22  23  24 0
 3-21G
 ****
 26  27  29  30  31  37  38  41  42  43  44  45  46  47  48 0
 3-21G
 ****


