%nproc=1
%NoSave
%Mem=1900MB
#P OB98/GEN NMR

erre ene a

0 1
  C      709.534     -18.210    -890.140
  O      710.583     -18.302    -889.180
  P      712.089     -18.348    -889.720
  C      713.208     -19.712    -891.640
  O      712.171     -19.654    -890.650
  C      712.893     -20.782    -892.680
  O      711.550     -20.597    -893.180
  C      713.786     -20.741    -893.910
  O      715.025     -21.395    -893.700
  C      712.941     -21.514    -894.900
  O      713.071     -22.926    -894.660
  C      711.528     -21.038    -894.560
  N      710.443     -19.669    -899.360
  C      710.964     -20.809    -898.850
  N      711.232     -21.084    -897.570
  C      710.950     -20.030    -896.770
  C      710.450     -18.809    -897.170
  C      710.188     -18.631    -898.530
  N      709.631     -17.486    -899.060
  N      710.290     -17.975    -896.070
  C      710.671     -18.703    -895.040
  N      711.074     -19.950    -895.410
  O      712.930     -18.770    -888.420
  O      712.573     -17.073    -890.330
  H      712.458     -23.372    -895.280
  H      713.858     -18.482    -888.520
  H      711.173     -21.591    -899.560
  H      710.674     -18.353    -894.010
  H      710.794     -21.847    -894.640
  H      713.246     -21.334    -895.950
  H      713.923     -19.707    -894.270
  H      712.950     -21.759    -892.200
  H      714.142     -19.965    -891.130
  H      709.299     -17.511    -900.000
  H      709.245     -16.809    -898.400
  H      713.319     -18.722    -892.100
  P      716.249     -20.984    -894.660
  C      716.435     -20.714    -897.230
  O      715.737     -21.291    -896.140
  O      717.341     -22.130    -894.380
  O      716.778     -19.611    -894.410
  H      718.232     -21.790    -894.580
  H      716.161     -21.257    -898.150
  H      717.507     -20.767    -897.100
  H      716.132     -19.671    -897.350
  H      708.590     -18.189    -889.636
  H      709.571     -19.058    -890.791
  H      709.653     -17.314    -890.713

 3  4  5  6  7  8  9  10  11  12  22  25  29  30  31  32 0
 6-311+G(2d,p)
 ****
 33  36  37 0
 6-311+G(2d,p)
 ****
 1  2  13  14  15  16  17  18  19  20  21  23  24  26 0
 3-21G
 ****
 27  28  34  35  38  39  40  41  42  43  44  45  46  47  48 0
 3-21G
 ****


