%nproc=1
%NoSave
%Mem=1900MB
#P OB98/GEN NMR

erre ene a

0 1
  C       40.406      55.936    -106.781
  O       41.351      55.012    -106.279
  H       39.453      55.418    -106.922
  H       40.729      56.339    -107.744
  H       40.259      56.750    -106.067
  P       42.880      55.473    -106.134
  C       43.824      54.384    -108.270
  O       43.462      55.598    -107.626
  C       45.088      54.572    -109.111
  O       44.827      55.593    -110.114
  C       46.313      55.008    -108.296
  O       47.469      54.366    -108.839
  C       46.361      56.501    -108.546
  O       47.662      57.020    -108.343
  C       45.834      56.614    -109.980
  N       45.301      57.949    -110.245
  C       46.236      58.948    -110.541
  O       47.440      58.679    -110.582
  N       45.801      60.237    -110.717
  C       44.544      60.521    -110.558
  N       44.185      61.824    -110.709
  C       43.526      59.504    -110.218
  C       43.966      58.253    -110.083
  O       43.724      54.669    -105.200
  O       42.770      56.999    -105.659
  H       47.673      57.974    -108.577
  H       42.762      57.047    -104.684
  H       42.493      59.791    -110.091
  H       43.292      57.441    -109.822
  H       46.630      56.402    -110.705
  H       45.683      57.015    -107.850
  H       46.220      54.773    -107.229
  H       45.290      53.639    -109.651
  H       44.923      62.488    -110.916
  H       42.990      54.085    -108.919
  H       43.246      62.170    -110.568
  H       43.986      53.600    -107.521
  P       48.089      53.066    -108.132
  C       50.346      54.211    -107.738
  O       49.262      53.519    -107.127
  O       48.473      51.966    -109.074
  O       46.923      52.576    -107.144
  H       46.977      51.604    -107.042
  H       51.070      54.468    -106.993
  H       49.982      55.102    -108.205
  H       50.801      53.582    -108.475

 6  7  8  9  10  11  12  13  14  15  16  26  30  31  32  33  35 0
 6-311+G(2d,p)
 ****
 37  38 0
 6-311+G(2d,p)
 ****
 1  2  3  4  5  17  18  19  20  21  22  23  24  25 0
 3-21G
 ****
 27  28  29  34  36  39  40  41  42  43  44  45  46 0
 3-21G
 ****


