%nproc=1
%NoSave
%Mem=1900MB
#P OB98/GEN NMR

erre ene a

0 1
  C      156.508    -186.326     299.860
  O      155.786    -185.111     300.069
  P      154.183    -185.224     299.979
  C      153.882    -184.991     297.414
  O      153.815    -185.850     298.541
  C      153.981    -185.781     296.107
  O      153.615    -184.958     294.963
  C      155.383    -186.346     295.833
  O      155.206    -187.603     295.166
  C      155.953    -185.343     294.836
  O      157.061    -185.879     294.123
  C      154.702    -185.059     294.004
  N      155.173    -183.278     289.308
  C      155.215    -184.577     289.772
  N      155.348    -185.550     288.841
  N      155.127    -184.895     291.034
  C      154.955    -183.817     291.850
  C      154.881    -182.490     291.502
  C      155.016    -182.148     290.097
  O      154.984    -181.015     289.627
  N      154.673    -181.694     292.611
  C      154.688    -182.549     293.619
  N      154.795    -183.845     293.206
  O      153.715    -183.698     299.864
  O      153.561    -185.911     301.153
  H      157.283    -185.244     293.410
  H      153.397    -183.378     300.733
  H      155.261    -183.087     288.317
  H      154.590    -182.281     294.659
  H      154.472    -185.869     293.308
  H      156.287    -184.439     295.361
  H      155.369    -185.381     287.844
  H      156.012    -186.462     296.719
  H      155.340    -186.509     289.155
  H      153.258    -186.610     296.152
  H      154.758    -184.336     297.494
  H      153.007    -184.327     297.414
  P      155.063    -188.912     296.081
  C      157.501    -189.780     295.865
  O      156.505    -189.217     296.703
  O      154.874    -190.089     294.999
  O      153.926    -188.882     297.044
  H      154.216    -190.733     295.334
  H      158.487    -189.496     296.245
  H      157.406    -189.419     294.831
  H      157.410    -190.871     295.869
  H      157.558    -186.136     299.942
  H      156.290    -186.707     298.884
  H      156.217    -187.045     300.597

 3  4  5  6  7  8  9  10  11  12  23  26  30  31 0
 6-311+G(2d,p)
 ****
 33  35  36  37  38 0
 6-311+G(2d,p)
 ****
 1  2  13  14  15  16  17  18  19  20  21  22  24  25 0
 3-21G
 ****
 27  28  29  32  34  39  40  41  42  43  44  45  46  47  48  49 0
 3-21G
 ****


