%nproc=1
%NoSave
%Mem=1900MB
#P OB98/GEN NMR

erre ene a

0 1
  C     -123.506     169.211     -62.050
  O     -122.350     169.165     -61.241
  H     -123.797     168.186     -62.301
  H     -123.299     169.749     -62.977
  H     -124.334     169.687     -61.520
  P     -121.809     170.526     -60.593
  C     -122.184     169.856     -58.134
  O     -122.574     170.716     -59.198
  C     -122.544     170.493     -56.794
  O     -121.917     171.789     -56.679
  C     -124.036     170.747     -56.614
  O     -124.736     169.553     -56.331
  C     -124.017     171.767     -55.489
  O     -123.879     171.130     -54.214
  C     -122.756     172.595     -55.823
  N     -123.090     173.869     -56.460
  C     -122.182     174.906     -56.272
  O     -121.144     174.792     -55.624
  N     -122.539     176.115     -56.808
  C     -123.746     176.407     -57.373
  O     -124.116     177.552     -57.613
  C     -124.638     175.261     -57.600
  C     -124.280     174.064     -57.130
  O     -121.819     171.718     -61.491
  O     -120.319     170.156     -60.134
  H     -119.684     170.520     -60.781
  H     -124.654     170.536     -54.128
  H     -121.903     176.883     -56.639
  H     -125.576     175.440     -58.111
  H     -124.938     173.210     -57.255
  H     -122.179     172.800     -54.913
  H     -124.934     172.358     -55.469
  H     -124.442     171.220     -57.516
  H     -122.157     169.853     -55.992
  H     -121.101     169.702     -58.185
  H     -122.689     168.891     -58.254
  P     -126.328     169.491     -56.498
  C     -126.624     169.341     -59.046
  O     -126.714     170.176     -57.896
  O     -127.112     169.978     -55.326
  O     -126.628     167.939     -56.772
  H     -127.338     167.646     -56.168
  H     -126.903     169.900     -59.915
  H     -127.283     168.506     -58.933
  H     -125.619     168.990     -59.154

 6  7  8  9  10  11  12  13  14  15  16  27  31  32  33  34  35 0
 6-311+G(2d,p)
 ****
 36  37 0
 6-311+G(2d,p)
 ****
 1  2  3  4  5  17  18  19  20  21  22  23  24  25 0
 3-21G
 ****
 26  28  29  30  38  39  40  41  42  43  44  45 0
 3-21G
 ****


