%nproc=1
%NoSave
%Mem=1900MB
#P OB98/GEN NMR

erre ene a

0 1
  C     -420.484     275.535    -224.977
  O     -421.122     274.744    -223.964
  P     -422.249     275.482    -223.083
  C     -423.806     273.447    -222.654
  O     -422.903     274.399    -222.107
  C     -423.402     272.032    -222.249
  O     -422.124     271.647    -222.813
  C     -423.237     271.865    -220.736
  O     -424.491     271.803    -220.088
  C     -422.427     270.562    -220.678
  O     -423.285     269.429    -220.855
  C     -421.499     270.711    -221.896
  N     -417.061     269.468    -219.668
  C     -418.211     268.771    -219.850
  N     -419.351     269.174    -220.448
  C     -419.229     270.433    -220.911
  C     -418.118     271.261    -220.804
  C     -416.993     270.735    -220.153
  N     -415.834     271.447    -219.948
  N     -418.367     272.490    -221.394
  C     -419.609     272.405    -221.820
  N     -420.171     271.182    -221.561
  O     -423.406     275.785    -224.149
  O     -421.762     276.725    -222.423
  H     -422.716     268.635    -220.931
  H     -423.442     276.746    -224.343
  H     -418.209     267.759    -219.454
  H     -420.152     273.206    -222.320
  H     -421.376     269.763    -222.440
  H     -421.902     270.437    -219.733
  H     -422.637     272.693    -220.327
  H     -424.165     271.330    -222.610
  H     -423.811     273.518    -223.751
  H     -415.102     271.017    -219.399
  H     -415.793     272.422    -220.226
  H     -424.820     273.680    -222.316
  P     -424.865     272.992    -219.074
  C     -427.400     273.125    -219.459
  O     -426.363     272.644    -218.615
  O     -425.069     274.220    -220.071
  O     -423.883     273.204    -217.971
  H     -425.611     273.972    -220.849
  H     -428.363     272.794    -219.056
  H     -427.289     272.718    -220.464
  H     -427.386     274.216    -219.479
  H     -419.760     274.939    -225.491
  H     -419.998     276.373    -224.522
  H     -421.218     275.883    -225.673

 3  4  5  6  7  8  9  10  11  12  22  25  29  30  31  32 0
 6-311+G(2d,p)
 ****
 33  36  37 0
 6-311+G(2d,p)
 ****
 1  2  13  14  15  16  17  18  19  20  21  23  24  26 0
 3-21G
 ****
 27  28  34  35  38  39  40  41  42  43  44  45  46  47  48 0
 3-21G
 ****


