%nproc=1
%NoSave
%Mem=1900MB
#P OB98/GEN NMR

erre ene a

0 1
  C      213.605     404.168     465.319
  O      214.250     405.383     464.916
  P      213.457     406.766     465.119
  C      213.799     408.586     463.216
  O      214.251     407.957     464.403
  C      214.747     409.754     462.878
  O      214.872     410.647     464.007
  C      216.163     409.312     462.514
  O      216.282     408.978     461.142
  C      216.993     410.510     462.929
  O      216.890     411.554     461.939
  C      216.281     410.926     464.238
  N      216.696     410.263     465.502
  C      218.045     410.080     465.772
  O      218.961     410.416     465.023
  N      218.339     409.472     466.968
  C      217.455     409.206     467.985
  O      217.785     408.720     469.060
  C      216.062     409.572     467.696
  C      215.750     410.059     466.500
  O      213.629     407.085     466.674
  O      212.012     406.723     464.707
  H      215.933     411.686     461.767
  H      212.752     407.061     467.125
  H      219.308     409.261     467.158
  H      215.330     409.416     468.489
  H      214.712     410.326     466.289
  H      216.372     412.013     464.406
  H      218.060     410.255     463.001
  H      216.460     408.463     463.146
  H      214.317     410.323     462.037
  H      212.785     408.954     463.330
  H      213.793     407.862     462.401
  P      217.495     408.072     460.629
  C      217.578     409.365     458.407
  O      217.421     408.104     459.017
  O      217.620     406.714     461.252
  O      218.799     408.986     460.934
  H      219.211     408.742     461.791
  H      217.644     409.215     457.326
  H      218.474     409.860     458.780
  H      216.702     409.990     458.613
  H      214.252     403.339     465.123
  H      212.695     404.048     464.769
  H      213.387     404.210     466.366

 3  4  5  6  7  8  9  10  11  12  13  23  28  29  30  31  32 0
 6-311+G(2d,p)
 ****
 33  34 0
 6-311+G(2d,p)
 ****
 1  2  14  15  16  17  18  19  20  21  22  24  25  26  27 0
 3-21G
 ****
 35  36  37  38  39  40  41  42  43  44  45 0
 3-21G
 ****


