%nproc=1
%NoSave
%Mem=1900MB
#P OB98/GEN NMR

erre ene a

0 1
  C      145.390      82.605    -152.550
  O      144.864      82.637    -151.239
  H      144.831      83.312    -153.170
  H      145.285      81.603    -152.978
  H      146.442      82.898    -152.541
  P      145.510      81.621    -150.175
  C      143.486      80.007    -150.408
  O      144.895      80.173    -150.491
  C      143.163      78.762    -149.593
  O      141.735      78.665    -149.383
  C      143.559      77.456    -150.270
  O      144.948      77.193    -150.157
  C      142.705      76.460    -149.501
  O      143.333      76.068    -148.267
  C      141.415      77.266    -149.231
  N      140.319      76.858    -150.105
  C      140.100      75.487    -150.196
  O      140.775      74.651    -149.592
  N      139.098      75.097    -151.042
  C      138.335      75.926    -151.819
  O      137.500      75.503    -152.613
  C      138.604      77.366    -151.670
  C      139.573      77.760    -150.840
  O      144.807      82.044    -148.801
  O      146.997      81.665    -150.083
  H      145.423      82.573    -148.261
  H      143.559      76.897    -147.804
  H      138.930      74.108    -151.132
  H      138.011      78.051    -152.265
  H      139.803      78.817    -150.730
  H      141.089      77.130    -148.192
  H      142.535      75.549    -150.075
  H      143.238      77.458    -151.319
  H      143.651      78.851    -148.611
  H      143.072      79.893    -151.417
  H      143.049      80.900    -149.948
  P      145.726      76.619    -151.438
  C      145.131      74.097    -151.000
  O      145.010      75.238    -151.832
  O      147.112      76.170    -150.782
  O      145.844      77.602    -152.554
  H      147.008      75.812    -149.884
  H      144.587      73.282    -151.430
  H      144.735      74.318    -150.031
  H      146.163      73.829    -150.910

 6  7  8  9  10  11  12  13  14  15  16  27  31  32  33  34  35 0
 6-311+G(2d,p)
 ****
 36  37 0
 6-311+G(2d,p)
 ****
 1  2  3  4  5  17  18  19  20  21  22  23  24  25 0
 3-21G
 ****
 26  28  29  30  38  39  40  41  42  43  44  45 0
 3-21G
 ****


