%nproc=1
%NoSave
%Mem=1900MB
#P OB98/GEN NMR

erre ene a

0 1
  C       -7.737     147.774      60.581
  O       -8.479     148.645      59.755
  H       -8.138     147.828      61.595
  H       -6.689     148.087      60.598
  H       -7.806     146.741      60.231
  P       -8.347     148.501      58.167
  C       -6.706     150.489      58.044
  O       -6.925     149.118      57.752
  C       -5.670     151.099      57.092
  O       -4.392     150.447      57.287
  C       -6.076     150.857      55.636
  O       -5.588     151.875      54.766
  C       -5.381     149.545      55.307
  O       -5.193     149.349      53.908
  C       -4.084     149.695      56.099
  N       -1.671     145.500      54.509
  C       -2.241     146.514      53.766
  N       -2.178     146.383      52.423
  N       -2.831     147.554      54.294
  C       -2.885     147.515      55.646
  C       -2.380     146.553      56.491
  C       -1.693     145.428      55.896
  O       -1.185     144.489      56.504
  N       -2.645     146.850      57.804
  C       -3.314     147.983      57.756
  N       -3.473     148.435      56.469
  O       -9.376     149.591      57.600
  O       -8.631     147.138      57.612
  H       -6.060     149.116      53.526
  H       -9.671     149.346      56.706
  H       -1.215     144.729      54.053
  H       -3.698     148.517      58.616
  H       -3.342     150.264      55.522
  H       -6.009     148.725      55.667
  H       -1.894     145.524      51.978
  H       -7.157     150.778      55.519
  H       -2.833     146.949      51.877
  H       -5.525     152.160      57.320
  H       -6.345     150.548      59.076
  H       -7.647     151.042      57.993
  P       -6.596     153.054      54.368
  C       -7.183     152.324      51.918
  O       -7.603     152.482      53.259
  O       -5.672     154.083      53.566
  O       -7.266     153.693      55.537
  H       -5.479     154.863      54.118
  H       -7.990     151.933      51.335
  H       -6.355     151.647      51.881
  H       -6.885     153.273      51.523

 6  7  8  9  10  11  12  13  14  15  26  29  33  34 0
 6-311+G(2d,p)
 ****
 36  38  39  40  41 0
 6-311+G(2d,p)
 ****
 1  2  3  4  5  16  17  18  19  20  21  22  23  24  25 0
 3-21G
 ****
 27  28  30  31  32  35  37  42  43  44  45  46  47 0
 3-21G
 ****
 48  49 0
 3-21G
 ****


