%nproc=1
%NoSave
%Mem=1900MB
#P OB98/GEN NMR

erre ene a

0 1
  C     1022.335    -209.183     709.538
  O     1023.055    -208.004     709.210
  H     1022.646    -209.510     710.547
  H     1022.579    -209.981     708.833
  H     1021.270    -208.990     709.544
  P     1022.767    -207.386     707.754
  C     1021.567    -205.225     708.588
  O     1022.716    -205.782     707.949
  C     1021.991    -204.170     709.610
  O     1022.765    -204.777     710.685
  C     1022.856    -203.051     709.036
  O     1022.051    -202.054     708.424
  C     1023.570    -202.533     710.290
  O     1022.711    -201.662     711.051
  C     1023.814    -203.847     711.059
  N     1028.736    -203.684     712.238
  C     1027.676    -202.956     712.728
  N     1027.963    -202.016     713.656
  N     1026.427    -203.120     712.366
  C     1026.286    -204.097     711.434
  C     1027.257    -204.906     710.851
  C     1028.621    -204.710     711.300
  O     1029.586    -205.373     710.948
  N     1026.717    -205.773     709.943
  C     1025.417    -205.469     709.930
  N     1025.118    -204.438     710.799
  O     1021.221    -207.766     707.487
  O     1023.647    -207.874     706.662
  H     1022.041    -202.203     711.479
  H     1021.089    -207.880     706.531
  H     1029.659    -203.512     712.576
  H     1024.679    -205.970     709.316
  H     1023.746    -203.695     712.138
  H     1024.463    -201.989     710.034
  H     1028.900    -201.610     713.707
  H     1023.607    -203.446     708.330
  H     1027.193    -201.446     714.006
  H     1021.081    -203.753     710.065
  H     1021.026    -206.030     709.110
  H     1020.913    -204.793     707.837
  P     1022.629    -201.348     707.087
  C     1021.537    -202.956     705.366
  O     1021.583    -201.635     705.909
  O     1023.893    -202.263     706.703
  O     1023.028    -199.913     707.269
  H     1024.472    -201.781     706.083
  H     1020.798    -202.999     704.594
  H     1021.285    -203.651     706.140
  H     1022.494    -203.208     704.958

 6  7  8  9  10  11  12  13  14  15  26  29  33  34 0
 6-311+G(2d,p)
 ****
 36  38  39  40  41 0
 6-311+G(2d,p)
 ****
 1  2  3  4  5  16  17  18  19  20  21  22  23  24  25 0
 3-21G
 ****
 27  28  30  31  32  35  37  42  43  44  45  46  47 0
 3-21G
 ****
 48  49 0
 3-21G
 ****


