%nproc=1
%NoSave
%Mem=1900MB
#P OB98/GEN NMR

erre ene a

0 1
  C      757.336     -10.166    -693.042
  O      757.929     -10.867    -694.127
  P      758.044     -10.101    -695.533
  C      756.228      -9.010    -697.045
  O      756.553     -10.054    -696.124
  C      754.756      -9.083    -697.438
  O      753.927      -8.994    -696.262
  C      754.291      -7.954    -698.345
  O      754.608      -8.200    -699.707
  C      752.790      -8.017    -698.134
  O      752.223      -9.086    -698.910
  C      752.693      -8.334    -696.642
  N      749.731      -4.255    -695.812
  C      749.699      -5.208    -696.771
  N      750.529      -6.248    -696.925
  C      751.496      -6.243    -695.990
  C      751.671      -5.305    -694.982
  C      750.734      -4.273    -694.899
  N      750.740      -3.317    -693.912
  N      752.779      -5.624    -694.221
  C      753.245      -6.737    -694.753
  N      752.502      -7.151    -695.814
  O      758.777     -11.172    -696.468
  O      758.773      -8.797    -695.480
  H      752.237      -8.793    -699.842
  H      759.225     -10.720    -697.209
  H      748.892      -5.122    -697.488
  H      754.127      -7.272    -694.397
  H      751.870      -9.024    -696.418
  H      752.283      -7.092    -698.442
  H      754.674      -6.985    -698.008
  H      754.576     -10.052    -697.905
  H      756.846      -9.138    -697.941
  H      749.937      -2.726    -693.812
  H      751.364      -3.468    -693.121
  H      756.469      -8.045    -696.588
  P      754.475      -6.962    -700.721
  C      752.460      -5.355    -701.063
  O      752.905      -6.686    -700.846
  O      754.873      -7.599    -702.135
  O      755.331      -5.788    -700.360
  H      755.214      -6.909    -702.731
  H      751.430      -5.387    -701.429
  H      753.081      -4.844    -701.795
  H      752.482      -4.802    -700.117
  H      757.326     -10.793    -692.175
  H      756.333      -9.895    -693.298
  H      757.903      -9.282    -692.836

 3  4  5  6  7  8  9  10  11  12  22  25  29  30  31  32 0
 6-311+G(2d,p)
 ****
 33  36  37 0
 6-311+G(2d,p)
 ****
 1  2  13  14  15  16  17  18  19  20  21  23  24  26 0
 3-21G
 ****
 27  28  34  35  38  39  40  41  42  43  44  45  46  47  48 0
 3-21G
 ****


