%nproc=1
%NoSave
%Mem=1900MB
#P OB98/GEN NMR

erre ene a

0 1
  C      599.262     226.749      20.586
  O      600.500     227.429      20.519
  H      598.834     226.899      21.580
  H      599.393     225.675      20.416
  H      598.569     227.161      19.844
  P      601.454     227.136      19.258
  C      602.215     224.926      20.351
  O      601.620     225.537      19.210
  C      603.719     224.731      20.155
  O      604.347     224.309      21.386
  C      604.081     223.647      19.146
  O      603.721     223.938      17.816
  C      605.537     223.378      19.489
  O      606.426     224.312      18.881
  C      605.532     223.569      21.025
  N      605.605     222.302      21.739
  C      606.818     222.026      22.379
  O      607.793     222.775      22.332
  N      606.887     220.837      23.046
  C      605.902     219.887      23.102
  O      606.034     218.832      23.704
  C      604.658     220.214      22.384
  C      604.571     221.388      21.750
  O      602.761     227.879      19.242
  O      600.522     227.445      17.996
  H      606.114     225.200      19.127
  H      601.062     227.536      17.169
  H      607.752     220.628      23.521
  H      603.865     219.490      22.397
  H      603.659     221.655      21.213
  H      606.388     224.180      21.332
  H      605.853     222.380      19.172
  H      603.523     222.740      19.410
  H      604.152     225.694      19.871
  H      601.736     223.953      20.498
  H      602.024     225.545      21.230
  P      603.826     222.889      16.611
  C      606.040     224.006      15.777
  O      605.359     222.810      16.135
  O      602.764     222.970      15.565
  O      603.643     221.489      17.393
  H      603.168     220.885      16.786
  H      607.043     223.772      15.487
  H      606.057     224.671      16.615
  H      605.533     224.474      14.960

 6  7  8  9  10  11  12  13  14  15  16  26  31  32  33  34  35 0
 6-311+G(2d,p)
 ****
 36  37 0
 6-311+G(2d,p)
 ****
 1  2  3  4  5  17  18  19  20  21  22  23  24  25 0
 3-21G
 ****
 27  28  29  30  38  39  40  41  42  43  44  45 0
 3-21G
 ****


