%nproc=1
%NoSave
%Mem=1900MB
#P OB98/GEN NMR

erre ene a

0 1
  C     2192.213    1136.131    -890.140
  O     2193.110    1136.525    -891.170
  P     2193.434    1135.416    -892.320
  C     2193.114    1136.441    -894.700
  O     2192.512    1135.834    -893.570
  C     2192.580    1137.860    -894.850
  O     2193.027    1138.665    -893.700
  C     2193.110    1138.583    -896.050
  O     2192.494    1138.164    -897.250
  C     2192.853    1140.072    -895.680
  O     2191.479    1140.378    -895.950
  C     2193.109    1140.060    -894.160
  N     2194.382    1140.651    -893.810
  C     2194.473    1141.217    -892.570
  O     2193.520    1141.282    -891.740
  N     2195.664    1141.806    -892.240
  C     2196.783    1141.879    -893.070
  O     2197.828    1142.373    -892.660
  C     2196.598    1141.289    -894.360
  C     2195.476    1140.751    -894.720
  O     2192.707    1134.103    -891.710
  O     2194.896    1135.264    -892.590
  H     2191.903    1134.320    -891.230
  H     2191.405    1140.400    -896.950
  H     2195.744    1142.224    -891.310
  H     2197.483    1141.348    -895.040
  H     2195.320    1140.304    -895.680
  H     2192.323    1140.607    -893.660
  H     2193.464    1140.755    -896.270
  H     2194.198    1138.459    -896.140
  H     2191.501    1137.882    -894.850
  H     2192.843    1135.892    -895.600
  H     2194.198    1136.408    -894.610
  P     2193.460    1137.623    -898.430
  C     2191.930    1135.623    -899.150
  O     2193.163    1136.067    -898.620
  O     2194.888    1137.681    -897.710
  O     2193.384    1138.472    -899.700
  H     2194.864    1137.316    -896.800
  H     2192.076    1134.603    -899.540
  H     2191.635    1136.262    -900.000
  H     2191.177    1135.633    -898.370
  H     2192.083    1136.940    -889.452
  H     2192.613    1135.284    -889.623
  H     2191.268    1135.873    -890.570

 3  4  5  6  7  8  9  10  11  12  13  24  28  29  30  31  32 0
 6-311+G(2d,p)
 ****
 33  34 0
 6-311+G(2d,p)
 ****
 1  2  14  15  16  17  18  19  20  21  22  23  25  26  27 0
 3-21G
 ****
 35  36  37  38  39  40  41  42  43  44  45 0
 3-21G
 ****


