%nproc=1
%NoSave
%Mem=1900MB
#P OB98/GEN NMR

erre ene a

0 1
  C     -678.176     436.049     411.431
  O     -676.937     436.245     410.748
  P     -676.940     436.201     409.143
  C     -675.427     438.308     408.936
  O     -675.628     436.941     408.602
  C     -674.207     438.872     408.201
  O     -672.973     438.413     408.806
  C     -674.118     438.453     406.744
  O     -674.931     439.259     405.920
  C     -672.635     438.704     406.456
  O     -672.428     440.111     406.202
  C     -671.972     438.285     407.771
  N     -668.226     435.190     406.150
  C     -668.458     436.505     405.946
  N     -669.485     437.262     406.397
  C     -670.320     436.514     407.143
  C     -670.214     435.174     407.426
  C     -669.109     434.496     406.895
  N     -668.882     433.146     407.107
  N     -671.274     434.745     408.201
  C     -671.998     435.834     408.411
  N     -671.464     436.926     407.773
  O     -678.118     437.226     408.761
  O     -677.201     434.848     408.573
  H     -671.482     440.225     405.992
  H     -678.582     436.916     407.954
  H     -667.718     437.020     405.344
  H     -672.907     435.882     408.986
  H     -671.132     438.949     408.038
  H     -672.286     438.174     405.575
  H     -674.325     437.374     406.627
  H     -674.238     439.964     408.266
  H     -675.298     438.420     410.021
  H     -668.048     432.732     406.708
  H     -669.525     432.618     407.684
  H     -676.331     438.877     408.673
  P     -675.756     438.528     404.753
  C     -678.227     438.895     405.502
  O     -677.158     439.307     404.664
  O     -676.144     437.123     405.421
  O     -675.011     438.362     403.471
  H     -676.197     436.427     404.730
  H     -678.970     439.691     405.533
  H     -677.871     438.701     406.514
  H     -678.695     437.989     405.095
  H     -678.014     436.106     412.487
  H     -678.572     435.087     411.182
  H     -678.870     436.808     411.135

 3  4  5  6  7  8  9  10  11  12  22  25  29  30  31  32 0
 6-311+G(2d,p)
 ****
 33  36  37 0
 6-311+G(2d,p)
 ****
 1  2  13  14  15  16  17  18  19  20  21  23  24  26 0
 3-21G
 ****
 27  28  34  35  38  39  40  41  42  43  44  45  46  47  48 0
 3-21G
 ****


