%nproc=1
%NoSave
%Mem=1900MB
#P OB98/GEN NMR

erre ene a

0 1
  C     -146.115      -8.813      44.440
  O     -147.134      -9.075      43.497
  P     -147.416     -10.572      42.997
  C     -149.596     -10.803      44.356
  O     -148.259     -11.263      44.176
  C     -150.598     -11.813      43.798
  O     -150.323     -13.133      44.307
  C     -152.046     -11.519      44.165
  O     -152.561     -10.471      43.365
  C     -152.691     -12.877      43.923
  O     -153.003     -13.066      42.534
  C     -151.576     -13.848      44.369
  N     -151.818     -14.403      45.694
  C     -152.587     -15.571      45.736
  O     -153.045     -16.054      44.700
  N     -152.862     -16.136      46.958
  C     -152.425     -15.569      48.041
  N     -152.740     -16.169      49.220
  C     -151.638     -14.320      48.040
  C     -151.376     -13.797      46.845
  O     -146.215     -11.328      42.538
  O     -148.515     -10.368      41.848
  H     -153.669     -12.386      42.310
  H     -148.111      -9.998      41.025
  H     -151.307     -13.879      48.969
  H     -150.807     -12.879      46.753
  H     -151.489     -14.683      43.661
  H     -153.626     -12.993      44.480
  H     -152.115     -11.265      45.229
  H     -150.482     -11.839      42.706
  H     -153.307     -17.007      49.178
  H     -149.706      -9.853      43.824
  H     -152.483     -15.794      50.120
  H     -149.776     -10.624      45.421
  P     -153.422      -9.303      44.039
  C     -151.420      -7.954      44.906
  O     -152.568      -8.703      45.254
  O     -154.835      -9.656      44.368
  O     -153.373      -8.128      42.951
  H     -154.266      -7.746      42.856
  H     -151.129      -7.338      45.762
  H     -151.620      -7.303      44.051
  H     -150.600      -8.634      44.664
  H     -146.081      -7.764      44.646
  H     -145.173      -9.129      44.044
  H     -146.320      -9.348      45.344

 3  4  5  6  7  8  9  10  11  12  13  23  27  28  29  30  32 0
 6-311+G(2d,p)
 ****
 34  35 0
 6-311+G(2d,p)
 ****
 1  2  14  15  16  17  18  19  20  21  22  24  25  26 0
 3-21G
 ****
 31  33  36  37  38  39  40  41  42  43  44  45  46 0
 3-21G
 ****


