%nproc=1
%NoSave
%Mem=1900MB
#P OB98/GEN NMR

erre ene a

0 1
  C     -145.839      37.611    -332.080
  O     -146.924      37.144    -331.302
  P     -148.426      37.299    -331.835
  C     -149.204      34.989    -331.020
  O     -149.004      35.836    -332.148
  C     -148.441      33.680    -331.193
  O     -147.015      33.897    -331.090
  C     -148.757      32.630    -330.138
  O     -150.036      32.058    -330.322
  C     -147.586      31.673    -330.316
  O     -147.816      30.791    -331.426
  C     -146.433      32.649    -330.637
  N     -145.548      32.856    -329.501
  C     -144.703      31.789    -329.177
  O     -144.786      30.720    -329.785
  N     -143.789      31.960    -328.168
  C     -143.806      33.048    -327.460
  N     -142.840      33.185    -326.515
  C     -144.790      34.131    -327.667
  C     -145.609      33.978    -328.711
  O     -148.612      38.293    -332.934
  O     -149.256      37.732    -330.534
  H     -149.793      38.520    -330.751
  H     -148.632      30.291    -331.219
  H     -144.807      34.985    -327.009
  H     -146.350      34.732    -328.951
  H     -145.842      32.273    -331.478
  H     -147.420      31.046    -329.435
  H     -148.701      33.088    -329.141
  H     -148.657      33.289    -332.198
  H     -142.173      32.431    -326.411
  H     -150.272      34.785    -330.920
  H     -142.564      34.090    -326.144
  H     -148.869      35.509    -330.112
  P     -151.205      32.559    -329.345
  C     -152.702      33.733    -331.103
  O     -151.838      33.879    -329.995
  O     -150.408      33.108    -328.068
  O     -152.193      31.501    -328.959
  H     -150.913      32.908    -327.256
  H     -153.305      34.637    -331.202
  H     -153.369      32.875    -330.982
  H     -152.107      33.607    -332.014
  H     -144.922      37.421    -331.563
  H     -145.945      38.663    -332.244
  H     -145.830      37.102    -333.021

 3  4  5  6  7  8  9  10  11  12  13  24  27  28  29  30  32 0
 6-311+G(2d,p)
 ****
 34  35 0
 6-311+G(2d,p)
 ****
 1  2  14  15  16  17  18  19  20  21  22  23  25  26 0
 3-21G
 ****
 31  33  36  37  38  39  40  41  42  43  44  45  46 0
 3-21G
 ****


