%nproc=1
%NoSave
%Mem=1900MB
#P OB98/GEN NMR

erre ene a

0 1
  C      195.539    -469.815    -239.295
  O      195.610    -470.352    -240.614
  P      196.973    -470.119    -241.434
  C      198.381    -467.968    -241.784
  O      197.082    -468.531    -241.645
  C      198.296    -466.450    -241.874
  O      197.770    -465.918    -240.647
  C      199.637    -465.757    -242.076
  O      200.050    -465.779    -243.434
  C      199.301    -464.339    -241.628
  O      198.663    -463.629    -242.706
  C      198.306    -464.583    -240.478
  N      198.415    -461.964    -236.145
  C      197.646    -461.773    -237.280
  N      196.765    -460.749    -237.241
  N      197.739    -462.509    -238.355
  C      198.633    -463.516    -238.236
  C      199.447    -463.813    -237.161
  C      199.374    -462.954    -235.998
  O      200.077    -463.041    -234.993
  N      200.213    -464.925    -237.409
  C      199.835    -465.325    -238.608
  N      198.898    -464.487    -239.161
  O      196.612    -470.663    -242.894
  O      198.175    -470.795    -240.868
  H      198.325    -462.789    -242.332
  H      197.424    -470.942    -243.355
  H      198.288    -461.376    -235.341
  H      200.213    -466.208    -239.108
  H      197.462    -463.888    -240.535
  H      200.188    -463.758    -241.346
  H      196.555    -460.230    -236.401
  H      200.404    -466.177    -241.415
  H      196.167    -460.615    -238.047
  H      197.607    -466.190    -242.686
  H      198.841    -468.354    -242.700
  H      198.994    -468.275    -240.934
  P      201.592    -465.435    -243.719
  C      203.186    -463.659    -242.691
  O      201.856    -464.034    -242.983
  O      201.602    -465.062    -245.278
  O      202.541    -466.538    -243.399
  H      202.485    -465.227    -245.660
  H      203.876    -463.979    -243.477
  H      203.489    -464.104    -241.741
  H      203.233    -462.573    -242.601
  H      194.584    -470.042    -238.868
  H      195.669    -468.754    -239.335
  H      196.311    -470.247    -238.692

 3  4  5  6  7  8  9  10  11  12  23  26  30  31  33  0
 6-311+G(2d,p)
 ****
 35  36  37  38 0
 6-311+G(2d,p)
 ****
 1  2  13  14  15  16  17  18  19  20  21  22  24  25  27  28  29 0
 3-21G
 ****
 32  34  39  40  41  42  43  44  45  46  47  48  49 0
 3-21G
 ****


