%nproc=1
%NoSave
%Mem=1900MB
#P OB98/GEN NMR

erre ene a

0 1
  C       64.828    -304.175     136.280
  O       63.575    -304.117     136.935
  H       64.738    -304.835     135.411
  H       65.587    -304.587     136.950
  H       65.131    -303.182     135.934
  P       63.404    -303.136     138.192
  C       63.497    -303.368     140.752
  O       63.734    -304.004     139.503
  C       63.476    -304.398     141.884
  O       62.288    -305.221     141.741
  C       64.696    -305.327     141.895
  O       65.061    -305.584     143.251
  C       64.172    -306.602     141.258
  O       64.896    -307.757     141.684
  C       62.710    -306.600     141.704
  N       61.197    -311.268     140.487
  C       61.999    -310.834     141.524
  N       62.498    -311.783     142.350
  N       62.292    -309.576     141.736
  C       61.717    -308.733     140.839
  C       60.906    -309.041     139.774
  C       60.601    -310.438     139.543
  O       59.905    -310.883     138.637
  N       60.540    -307.907     139.085
  C       61.133    -306.920     139.734
  N       61.869    -307.370     140.801
  O       62.106    -302.392     138.254
  O       64.654    -302.143     138.083
  H       65.837    -307.613     141.441
  H       64.385    -301.292     137.693
  H       61.010    -312.252     140.367
  H       61.071    -305.871     139.472
  H       62.579    -307.032     142.704
  H       64.251    -306.530     140.166
  H       62.301    -312.768     142.259
  H       65.552    -304.914     141.348
  H       63.071    -311.485     143.132
  H       63.381    -303.864     142.837
  H       62.529    -302.856     140.699
  H       64.282    -302.624     140.936
  P       66.181    -304.662     143.937
  C       68.745    -304.677     144.211
  O       67.623    -305.262     143.558
  O       65.974    -304.364     145.385
  O       66.127    -303.321     143.057
  H       66.378    -302.562     143.620
  H       69.642    -305.157     143.879
  H       68.646    -304.800     145.269
  H       68.791    -303.634     143.976

 6  7  8  9  10  11  12  13  14  15  26  29  33  34 0
 6-311+G(2d,p)
 ****
 36  38  39  40  41 0
 6-311+G(2d,p)
 ****
 1  2  3  4  5  16  17  18  19  20  21  22  23  24  25 0
 3-21G
 ****
 27  28  30  31  32  35  37  42  43  44  45  46  47 0
 3-21G
 ****
 48  49 0
 3-21G
 ****


