%nproc=1
%NoSave
%Mem=1900MB
#P OB98/GEN NMR

erre ene a

0 1
  C       32.287     -17.764      68.224
  O       33.146     -18.824      68.587
  H       31.270     -18.018      68.535
  H       32.295     -17.625      67.140
  H       32.583     -16.837      68.720
  P       34.724     -18.652      68.364
  C       34.396     -19.034      65.838
  O       35.090     -19.433      67.013
  C       33.978     -20.265      65.038
  O       33.153     -19.878      63.917
  C       35.148     -21.042      64.444
  O       35.806     -21.800      65.439
  C       34.428     -21.854      63.378
  O       33.769     -22.993      63.954
  C       33.390     -20.832      62.857
  N       33.821     -20.161      61.630
  C       33.703     -20.896      60.455
  O       33.270     -22.046      60.420
  N       34.147     -20.276      59.317
  C       34.765     -19.060      59.261
  O       35.341     -18.641      58.262
  C       34.794     -18.300      60.519
  C       34.342     -18.882      61.632
  O       35.584     -18.982      69.538
  O       34.877     -17.114      67.939
  H       35.182     -16.596      68.709
  H       33.140     -23.318      63.280
  H       34.109     -20.818      58.466
  H       35.219     -17.304      60.503
  H       34.381     -18.351      62.577
  H       32.432     -21.328      62.656
  H       35.110     -22.232      62.614
  H       35.846     -20.354      63.954
  H       33.376     -20.909      65.693
  H       35.067     -18.417      65.230
  H       33.523     -18.439      66.121
  P       37.398     -21.949      65.449
  C       37.651     -24.318      64.503
  O       37.752     -23.498      65.660
  O       38.115     -21.019      66.370
  O       37.827     -21.687      63.927
  H       38.511     -20.990      63.904
  H       37.908     -25.325      64.756
  H       38.321     -23.958      63.751
  H       36.648     -24.288      64.131

 6  7  8  9  10  11  12  13  14  15  16  27  31  32  33  34  35 0
 6-311+G(2d,p)
 ****
 36  37 0
 6-311+G(2d,p)
 ****
 1  2  3  4  5  17  18  19  20  21  22  23  24  25 0
 3-21G
 ****
 26  28  29  30  38  39  40  41  42  43  44  45 0
 3-21G
 ****


