%nproc=1
%NoSave
%Mem=1900MB
#P OB98/GEN NMR

erre ene a

0 1
  C     -177.598    -145.232    -362.747
  O     -177.828    -146.627    -362.830
  H     -177.531    -144.948    -361.692
  H     -178.427    -144.688    -363.206
  H     -176.659    -144.969    -363.246
  P     -177.780    -147.279    -364.296
  C     -180.377    -147.702    -364.205
  O     -179.077    -148.233    -364.425
  C     -181.411    -148.833    -364.239
  O     -181.618    -149.326    -365.562
  C     -181.000    -150.071    -363.450
  O     -181.041    -149.865    -362.051
  C     -182.027    -151.064    -363.950
  O     -183.289    -150.891    -363.305
  C     -182.119    -150.683    -365.462
  N     -181.396    -151.613    -366.318
  C     -181.955    -152.892    -366.414
  O     -182.981    -153.179    -365.815
  N     -181.287    -153.831    -367.186
  C     -180.207    -153.505    -367.814
  N     -179.602    -154.484    -368.549
  C     -179.601    -152.157    -367.757
  C     -180.246    -151.278    -366.981
  O     -176.589    -148.324    -364.174
  O     -177.652    -146.310    -365.417
  H     -183.135    -151.045    -362.346
  H     -176.669    -148.941    -363.428
  H     -178.699    -151.923    -368.304
  H     -179.863    -150.270    -366.888
  H     -183.175    -150.663    -365.780
  H     -181.711    -152.099    -363.768
  H     -180.007    -150.405    -363.772
  H     -182.364    -148.426    -363.875
  H     -180.037    -155.400    -368.553
  H     -180.623    -146.937    -364.953
  H     -178.728    -154.365    -369.047
  H     -180.376    -147.222    -363.224
  P     -179.853    -150.415    -361.112
  C     -181.311    -150.996    -359.060
  O     -180.308    -150.127    -359.597
  O     -178.481    -149.922    -361.465
  O     -180.002    -152.005    -361.215
  H     -180.873    -152.362    -360.917
  H     -181.530    -150.708    -358.053
  H     -180.953    -152.004    -359.073
  H     -182.199    -150.925    -359.653

 6  7  8  9  10  11  12  13  14  15  16  26  30  31  32  33  35 0
 6-311+G(2d,p)
 ****
 37  38 0
 6-311+G(2d,p)
 ****
 1  2  3  4  5  17  18  19  20  21  22  23  24  25 0
 3-21G
 ****
 27  28  29  34  36  39  40  41  42  43  44  45  46 0
 3-21G
 ****


