%nproc=1
%NoSave
%Mem=1900MB
#P OB98/GEN NMR

erre ene a

0 1
  C       -6.089      31.732     249.211
  O       -6.753      30.476     249.077
  P       -7.128      29.641     250.393
  C       -5.200      27.972     250.004
  O       -5.818      28.871     250.911
  C       -3.973      27.298     250.650
  O       -2.936      28.284     250.887
  C       -4.302      26.620     251.991
  O       -3.850      25.266     252.061
  C       -3.714      27.573     253.020
  O       -3.420      26.939     254.256
  C       -2.529      28.196     252.265
  N       -2.152      29.500     252.821
  C       -1.507      29.490     254.052
  O       -1.322      28.463     254.706
  N       -1.135      30.716     254.543
  C       -1.412      31.921     253.974
  O       -1.099      32.995     254.477
  C       -2.153      31.873     252.702
  C       -2.482      30.682     252.193
  O       -8.357      28.797     250.297
  O       -7.311      30.788     251.501
  H       -2.912      27.567     254.814
  H       -8.065      30.530     252.075
  H       -0.656      30.722     255.429
  H       -2.410      32.813     252.232
  H       -3.037      30.617     251.264
  H       -1.645      27.550     252.325
  H       -4.449      28.359     253.228
  H       -5.383      26.544     252.148
  H       -3.598      26.560     249.932
  H       -4.874      28.517     249.118
  H       -5.931      27.233     249.663
  P       -4.810      23.993     252.151
  C       -4.743      23.720     254.731
  O       -5.527      24.001     253.586
  O       -4.202      22.688     251.761
  O       -6.003      24.368     251.144
  H       -6.258      23.572     250.641
  H       -5.412      23.399     255.537
  H       -4.215      24.622     255.042
  H       -4.024      22.919     254.534
  H       -5.916      32.149     248.241
  H       -5.153      31.589     249.710
  H       -6.700      32.399     249.783

 3  4  5  6  7  8  9  10  11  12  13  23  28  29  30  31  32 0
 6-311+G(2d,p)
 ****
 33  34 0
 6-311+G(2d,p)
 ****
 1  2  14  15  16  17  18  19  20  21  22  24  25  26  27 0
 3-21G
 ****
 35  36  37  38  39  40  41  42  43  44  45 0
 3-21G
 ****


