%nproc=1
%NoSave
%Mem=1900MB
#P OB98/GEN NMR

erre ene a

0 1
  C     -272.731    -430.706    -153.666
  O     -271.987    -431.789    -154.194
  P     -270.658    -431.439    -155.029
  C     -268.905    -432.413    -153.377
  O     -269.485    -431.247    -153.950
  C     -267.380    -432.387    -153.483
  O     -267.000    -432.693    -154.846
  C     -266.751    -431.044    -153.105
  O     -265.522    -431.313    -152.431
  C     -266.447    -430.408    -154.447
  O     -265.397    -429.447    -154.351
  C     -266.123    -431.642    -155.301
  N     -266.287    -431.386    -156.728
  C     -265.265    -430.678    -157.364
  O     -264.322    -430.235    -156.709
  N     -265.359    -430.448    -158.714
  C     -266.433    -430.797    -159.350
  N     -266.481    -430.550    -160.688
  C     -267.590    -431.435    -158.690
  C     -267.441    -431.717    -157.396
  O     -270.938    -429.952    -155.539
  O     -270.365    -432.380    -156.151
  H     -265.613    -428.835    -153.609
  H     -270.517    -429.795    -156.406
  H     -268.476    -431.673    -159.258
  H     -268.226    -432.205    -156.836
  H     -265.089    -431.972    -155.123
  H     -267.342    -429.902    -154.830
  H     -267.397    -430.437    -152.467
  H     -266.978    -433.186    -152.848
  H     -265.680    -430.101    -161.112
  H     -269.270    -433.294    -153.914
  H     -267.276    -430.785    -161.263
  H     -269.220    -432.497    -152.331
  P     -265.076    -430.307    -151.266
  C     -265.285    -432.169    -149.512
  O     -265.741    -430.899    -149.930
  O     -266.022    -429.042    -151.557
  O     -263.641    -429.900    -151.188
  H     -265.801    -428.319    -150.942
  H     -265.714    -432.387    -148.529
  H     -264.195    -432.178    -149.433
  H     -265.617    -432.936    -150.219
  H     -273.582    -431.082    -153.138
  H     -273.057    -430.074    -154.465
  H     -272.115    -430.144    -152.995

 3  4  5  6  7  8  9  10  11  12  13  21  23  27  28  29  30  32 0
 6-311+G(2d,p)
 ****
 34  35 0
 6-311+G(2d,p)
 ****
 1  2  14  15  16  17  18  19  20  22  24  25  26 0
 3-21G
 ****
 31  33  36  37  38  39  40  41  42  43  44  45  46 0
 3-21G
 ****


