%nproc=1
%NoSave
%Mem=1900MB
#P OB98/GEN NMR

erre ene a

0 1
  C     -898.100     933.826    1107.829
  O     -897.990     935.125    1108.378
  H     -897.880     933.881    1106.758
  H     -899.110     933.447    1107.961
  H     -897.380     933.144    1108.289
  P     -898.070     935.296    1109.967
  C     -896.220     937.039    1110.428
  O     -896.600     935.671    1110.474
  C     -895.260     937.302    1109.260
  O     -895.950     937.008    1108.016
  C     -894.760     938.754    1109.168
  O     -893.460     938.715    1108.583
  C     -895.780     939.342    1108.207
  O     -895.400     940.617    1107.727
  C     -895.860     938.192    1107.191
  N     -896.980     938.264    1106.259
  C     -896.920     939.235    1105.256
  O     -895.990     940.029    1105.108
  N     -897.990     939.277    1104.408
  C     -899.080     938.447    1104.446
  O     -900.000     938.519    1103.638
  C     -899.090     937.462    1105.527
  C     -898.060     937.407    1106.369
  O     -898.730     934.180    1110.709
  O     -898.870     936.675    1110.155
  H     -899.800     936.486    1110.389
  H     -895.060     941.153    1108.471
  H     -897.960     939.969    1103.674
  H     -899.950     936.798    1105.591
  H     -898.030     936.675    1107.168
  H     -894.930     938.119    1106.626
  H     -896.740     939.493    1108.717
  H     -894.710     939.257    1110.140
  H     -894.420     936.596    1109.332
  H     -895.730     937.290    1111.373
  H     -897.120     937.657    1110.318
  P     -892.200     937.973    1109.258
  C     -891.150     936.640    1107.301
  O     -891.960     936.589    1108.473
  O     -892.320     937.802    1110.735
  O     -890.930     938.861    1108.886
  H     -890.230     938.741    1109.559
  H     -891.071     935.660    1106.879
  H     -890.175     936.998    1107.557
  H     -891.596     937.301    1106.588

 6  7  8  9  10  11  12  13  14  15  16  27  31  32  33  34  35 0
 6-311+G(2d,p)
 ****
 36  37 0
 6-311+G(2d,p)
 ****
 1  2  3  4  5  17  18  19  20  21  22  23  24  25 0
 3-21G
 ****
 26  28  29  30  38  39  40  41  42  43  44  45 0
 3-21G
 ****


