%nproc=1
%NoSave
%Mem=1900MB
#P OB98/GEN NMR

erre ene a

0 1
  C      379.070    -162.121      55.419
  O      377.919    -161.949      56.259
  P      377.557    -160.536      56.931
  C      376.019    -158.592      56.218
  O      376.171    -160.011      56.310
  C      374.595    -158.206      55.788
  O      374.281    -158.771      54.500
  C      373.499    -158.671      56.734
  O      373.421    -157.823      57.866
  C      372.279    -158.639      55.817
  O      371.767    -157.293      55.713
  C      372.876    -159.092      54.478
  N      371.101    -162.514      51.107
  C      371.190    -161.163      51.071
  N      371.668    -160.318      52.014
  C      372.112    -161.011      53.076
  C      372.085    -162.381      53.260
  C      371.546    -163.150      52.218
  N      371.440    -164.524      52.272
  N      372.601    -162.718      54.498
  C      372.958    -161.565      55.038
  N      372.684    -160.501      54.218
  O      378.665    -159.539      56.886
  O      377.176    -160.890      58.446
  H      372.391    -156.786      55.166
  H      377.370    -160.126      59.022
  H      370.828    -160.699      50.156
  H      373.418    -161.453      56.014
  H      372.440    -158.538      53.635
  H      371.463    -159.269      56.178
  H      373.688    -159.705      57.052
  H      374.569    -157.114      55.677
  H      376.738    -158.219      55.481
  H      371.008    -165.001      51.497
  H      371.729    -165.003      53.117
  H      376.242    -158.159      57.191
  P      373.926    -158.345      59.298
  C      376.170    -158.561      60.523
  O      375.490    -158.026      59.400
  O      373.536    -159.747      59.647
  O      373.288    -157.294      60.323
  H      373.125    -157.728      61.184
  H      375.988    -157.919      61.390
  H      377.234    -158.576      60.310
  H      375.842    -159.575      60.733
  H      379.117    -163.135      55.082
  H      379.955    -161.888      55.974
  H      378.996    -161.468      54.575

 3  4  5  6  7  8  9  10  11  12  22  25  29  30  31  32 0
 6-311+G(2d,p)
 ****
 33  36  37 0
 6-311+G(2d,p)
 ****
 1  2  13  14  15  16  17  18  19  20  21  23  24  26 0
 3-21G
 ****
 27  28  34  35  38  39  40  41  42  43  44  45  46  47  48 0
 3-21G
 ****


