%nproc=1
%NoSave
%Mem=1900MB
#P OB98/GEN NMR

erre ene a

0 1
  C      618.015     220.543     645.635
  O      616.605     220.411     645.715
  H      618.277     221.587     645.813
  H      618.363     220.249     644.642
  H      618.495     219.921     646.396
  P      616.012     218.942     645.455
  C      615.537     219.649     643.008
  O      615.019     219.075     644.198
  C      614.690     219.237     641.809
  O      614.986     217.883     641.407
  C      613.185     219.310     642.044
  O      612.695     220.632     641.866
  C      612.670     218.344     640.980
  O      612.601     218.979     639.679
  C      613.744     217.249     640.994
  N      610.764     213.215     641.652
  C      610.846     214.103     640.596
  N      609.964     213.919     639.583
  N      611.711     215.089     640.537
  C      612.500     215.174     641.628
  C      612.531     214.345     642.731
  C      611.590     213.232     642.774
  O      611.512     212.378     643.644
  N      613.492     214.739     643.620
  C      614.019     215.818     643.085
  N      613.438     216.134     641.879
  O      615.007     218.720     646.694
  O      617.020     217.847     645.369
  H      611.981     219.726     639.724
  H      614.978     217.773     646.909
  H      610.096     212.464     641.631
  H      614.811     216.404     643.530
  H      613.915     216.820     640.001
  H      611.663     217.989     641.207
  H      609.096     213.421     639.724
  H      612.926     218.917     643.046
  H      610.002     214.583     638.821
  H      614.975     219.889     640.965
  H      616.562     219.303     642.859
  H      615.539     220.742     643.108
  P      611.902     221.304     643.096
  C      609.859     219.780     642.516
  O      610.339     221.108     642.782
  O      612.128     222.866     642.873
  O      612.359     220.868     644.439
  H      611.928     223.355     643.684
  H      608.806     219.812     642.327
  H      610.050     219.155     643.364
  H      610.363     219.383     641.660

 6  7  8  9  10  11  12  13  14  15  26  29  33  34 0
 6-311+G(2d,p)
 ****
 36  38  39  40  41 0
 6-311+G(2d,p)
 ****
 1  2  3  4  5  16  17  18  19  20  21  22  23  24  25 0
 3-21G
 ****
 27  28  30  31  32  35  37  42  43  44  45  46  47 0
 3-21G
 ****
 48  49 0
 3-21G
 ****


