%nproc=1
%NoSave
%Mem=1900MB
#P OB98/GEN NMR

erre ene a

0 1
  C        5.028      -4.615      20.337
  O        6.193      -5.165      20.927
  P        6.346      -6.765      20.912
  C        5.240      -6.866      23.261
  O        6.348      -7.234      22.447
  C        5.533      -7.109      24.742
  O        4.503      -6.471      25.535
  C        5.585      -8.587      25.134
  O        6.607      -8.741      26.120
  C        4.235      -8.828      25.782
  O        4.273      -9.930      26.686
  C        3.966      -7.463      26.434
  N        2.546      -7.243      26.687
  C        1.963      -7.998      27.709
  O        2.622      -8.858      28.293
  N        0.638      -7.798      28.007
  C       -0.068      -6.993      27.276
  N       -1.375      -6.826      27.612
  C        0.479      -6.271      26.111
  C        1.784      -6.424      25.891
  O        7.866      -6.974      20.461
  O        5.385      -7.473      20.016
  H        3.476      -9.882      27.258
  H        7.965      -7.795      19.943
  H       -0.162      -5.640      25.513
  H        2.276      -5.914      25.073
  H        4.508      -7.377      27.385
  H        3.484      -9.040      25.011
  H        5.789      -9.245      24.285
  H        6.482      -6.617      24.988
  H       -1.731      -7.344      28.406
  H        4.375      -7.474      22.979
  H       -2.002      -6.220      27.100
  H        4.991      -5.816      23.082
  P        7.878      -9.641      25.740
  C        7.508     -10.977      27.900
  O        8.418     -10.209      27.139
  O        8.975      -8.517      25.406
  O        7.747     -10.615      24.618
  H        9.794      -8.941      25.093
  H        8.042     -11.411      28.750
  H        7.091     -11.786      27.296
  H        6.706     -10.337      28.279
  H        5.057      -3.548      20.417
  H        4.162      -4.987      20.843
  H        4.985      -4.894      19.305

 3  4  5  6  7  8  9  10  11  12  13  21  23  27  28  29  30  32 0
 6-311+G(2d,p)
 ****
 34  35 0
 6-311+G(2d,p)
 ****
 1  2  14  15  16  17  18  19  20  22  24  25  26 0
 3-21G
 ****
 31  33  36  37  38  39  40  41  42  43  44  45  46 0
 3-21G
 ****


