%nproc=1
%NoSave
%Mem=1900MB
#P OB98/GEN NMR

erre ene a

0 1
  C      625.955     621.587     240.007
  O      625.878     622.828     239.303
  P      624.849     622.914     238.073
  C      623.897     625.257     238.770
  O      623.661     623.871     238.573
  C      622.686     626.067     238.311
  O      622.488     625.916     236.882
  C      621.376     625.637     238.948
  O      621.283     626.078     240.293
  C      620.369     626.274     237.996
  O      620.212     627.670     238.300
  C      621.075     626.118     236.632
  N      620.519     625.035     235.823
  C      619.137     625.059     235.648
  O      618.411     625.913     236.154
  N      618.621     624.046     234.885
  C      619.327     623.026     234.319
  O      618.806     622.153     233.634
  C      620.774     623.031     234.578
  C      621.300     624.020     235.305
  O      624.215     621.447     238.092
  O      625.505     623.309     236.789
  H      624.121     621.087     238.990
  H      619.583     628.028     237.645
  H      617.622     624.051     234.736
  H      621.360     622.216     234.167
  H      622.363     624.036     235.511
  H      620.998     627.044     236.053
  H      619.381     625.813     238.054
  H      621.280     624.547     238.906
  H      622.882     627.118     238.522
  H      624.779     625.567     238.199
  H      624.112     625.432     239.832
  P      621.334     624.946     241.434
  C      623.068     626.193     242.929
  O      622.763     625.073     242.137
  O      621.456     623.620     240.545
  O      620.157     624.967     242.351
  H      622.092     623.705     239.816
  H      623.909     625.948     243.585
  H      622.215     626.488     243.555
  H      623.361     627.036     242.286
  H      626.673     621.668     240.796
  H      626.253     620.812     239.332
  H      624.997     621.351     240.420

 3  4  5  6  7  8  9  10  11  12  13  24  28  29  30  31  32 0
 6-311+G(2d,p)
 ****
 33  34 0
 6-311+G(2d,p)
 ****
 1  2  14  15  16  17  18  19  20  21  22  23  25  26  27 0
 3-21G
 ****
 35  36  37  38  39  40  41  42  43  44  45 0
 3-21G
 ****


