%nproc=1
%NoSave
%Mem=1900MB
#P OB98/GEN NMR

erre ene a

0 1
  C       50.554     -26.052     105.650
  O       49.789     -26.980     106.391
  P       50.302     -27.561     107.797
  C       51.109     -29.711     106.638
  O       50.272     -29.158     107.644
  C       51.207     -31.233     106.769
  O       51.950     -31.769     105.639
  C       51.895     -31.722     108.050
  O       51.250     -32.948     108.409
  C       53.313     -31.983     107.580
  O       54.032     -32.845     108.455
  C       53.052     -32.537     106.172
  N       54.237     -32.461     105.325
  C       55.127     -33.535     105.394
  O       54.936     -34.452     106.197
  N       56.243     -33.523     104.592
  C       56.498     -32.479     103.866
  N       57.613     -32.527     103.088
  C       55.650     -31.272     103.862
  C       54.540     -31.335     104.594
  O       49.595     -27.031     108.998
  O       51.869     -27.244     107.786
  H       54.941     -32.958     108.100
  H       52.030     -26.286     107.989
  H       55.933     -30.405     103.284
  H       53.856     -30.499     104.654
  H       52.729     -33.585     106.223
  H       53.864     -31.037     107.519
  H       51.850     -31.006     108.872
  H       50.190     -31.640     106.711
  H       58.159     -33.380     103.111
  H       52.110     -29.282     106.759
  H       57.857     -31.807     102.428
  H       50.742     -29.427     105.648
  P       50.557     -33.135     109.842
  C       52.027     -35.196     110.219
  O       50.710     -34.678     110.239
  O       49.167     -32.592     109.949
  O       51.547     -32.395     110.863
  H       51.085     -32.239     111.709
  H       52.047     -36.142     110.764
  H       52.730     -34.501     110.689
  H       52.334     -35.376     109.183
  H       50.032     -25.797     104.751
  H       51.500     -26.487     105.402
  H       50.709     -25.170     106.235

 3  4  5  6  7  8  9  10  11  12  13  23  27  28  29  30  32 0
 6-311+G(2d,p)
 ****
 34  35 0
 6-311+G(2d,p)
 ****
 1  2  14  15  16  17  18  19  20  21  22  24  25  26 0
 3-21G
 ****
 31  33  36  37  38  39  40  41  42  43  44  45  46 0
 3-21G
 ****


