%nproc=1
%NoSave
%Mem=1900MB
#P OB98/GEN NMR

erre ene a

0 1
  C      486.660    -982.865     409.142
  O      486.562    -983.337     410.470
  H      485.686    -982.470     408.846
  H      486.919    -983.696     408.468
  H      487.409    -982.073     409.061
  P      487.901    -983.831     411.210
  C      488.639    -984.242     413.655
  O      487.622    -983.735     412.792
  C      489.244    -983.097     414.465
  O      490.136    -982.311     413.648
  C      488.216    -982.105     414.989
  O      487.524    -982.635     416.115
  C      489.094    -980.906     415.302
  O      489.762    -981.063     416.563
  C      490.097    -980.950     414.127
  N      489.772    -980.014     413.049
  C      489.382    -978.741     413.430
  O      489.284    -978.392     414.605
  N      489.086    -977.878     412.411
  C      489.032    -978.195     411.080
  O      488.669    -977.404     410.209
  C      489.430    -979.574     410.737
  C      489.766    -980.393     411.714
  O      489.171    -983.200     410.753
  O      487.906    -985.412     410.955
  H      490.184    -981.942     416.534
  H      488.571    -985.628     410.266
  H      488.786    -976.951     412.658
  H      489.409    -979.860     409.693
  H      490.065    -981.422     411.484
  H      491.105    -980.715     414.482
  H      488.521    -979.977     415.347
  H      487.503    -981.829     414.201
  H      489.825    -983.525     415.289
  H      489.422    -984.707     413.036
  H      488.202    -985.007     414.315
  P      485.987    -982.272     416.347
  C      483.812    -983.553     416.862
  O      485.238    -983.610     416.835
  O      485.318    -981.555     415.227
  O      485.998    -981.362     417.672
  H      485.635    -980.488     417.464
  H      483.424    -984.491     417.200
  H      483.445    -983.348     415.878
  H      483.499    -982.777     417.528

 6  7  8  9  10  11  12  13  14  15  16  26  31  32  33  34  35 0
 6-311+G(2d,p)
 ****
 36  37 0
 6-311+G(2d,p)
 ****
 1  2  3  4  5  17  18  19  20  21  22  23  24  25 0
 3-21G
 ****
 27  28  29  30  38  39  40  41  42  43  44  45 0
 3-21G
 ****


