%nproc=1
%NoSave
%Mem=1900MB
#P OB98/GEN NMR

erre ene a

0 1
  C     -526.962    -233.239     -14.757
  O     -527.671    -232.513     -15.744
  H     -527.387    -234.238     -14.642
  H     -525.920    -233.330     -15.070
  H     -527.001    -232.705     -13.803
  P     -529.252    -232.365     -15.518
  C     -530.339    -233.993     -17.217
  O     -529.901    -233.789     -15.878
  C     -529.222    -234.625     -18.042
  O     -528.800    -235.869     -17.447
  C     -529.613    -234.982     -19.473
  O     -529.607    -233.842     -20.322
  C     -528.498    -235.955     -19.831
  O     -527.316    -235.228     -20.201
  C     -528.270    -236.698     -18.510
  N     -527.524    -241.766     -18.063
  C     -526.657    -240.725     -18.088
  N     -526.926    -239.411     -18.218
  C     -528.248    -239.194     -18.318
  C     -529.251    -240.157     -18.309
  C     -528.848    -241.498     -18.179
  N     -529.736    -242.551     -18.179
  N     -530.494    -239.564     -18.420
  C     -530.249    -238.274     -18.496
  N     -528.907    -238.003     -18.445
  O     -529.714    -231.427     -16.732
  O     -529.661    -231.789     -14.199
  H     -526.642    -235.886     -20.447
  H     -530.433    -230.843     -16.424
  H     -525.609    -240.985     -17.979
  H     -531.008    -237.507     -18.579
  H     -527.200    -236.833     -18.304
  H     -528.754    -236.609     -20.672
  H     -530.575    -235.509     -19.504
  H     -528.368    -233.937     -18.033
  H     -530.615    -233.032     -17.664
  H     -529.408    -243.459     -17.887
  H     -530.722    -242.338     -18.261
  H     -531.217    -234.649     -17.201
  P     -530.196    -234.028     -21.811
  C     -528.315    -233.596     -23.542
  O     -528.971    -234.540     -22.701
  O     -530.409    -232.520     -22.301
  O     -531.456    -234.829     -21.895
  H     -531.111    -232.494     -22.989
  H     -527.522    -234.081     -24.072
  H     -527.913    -232.805     -22.944
  H     -529.017    -233.193     -24.241

 6  7  8  9  10  11  12  13  14  15  25  28  32  33  34  35 0
 6-311+G(2d,p)
 ****
 36  39  40 0
 6-311+G(2d,p)
 ****
 1  2  3  4  5  16  17  18  19  20  21  22  23  24 0
 3-21G
 ****
 26  27  29  30  31  37  38  41  42  43  44  45  46  47  48 0
 3-21G
 ****


