%nproc=1
%NoSave
%Mem=1900MB
#P OB98/GEN NMR

erre ene a

0 1
  C     -517.213    -739.771     215.858
  O     -517.277    -738.483     215.236
  P     -518.623    -737.642     215.406
  C     -518.352    -736.390     213.140
  O     -518.472    -736.265     214.567
  C     -518.327    -735.016     212.464
  O     -519.662    -734.416     212.569
  C     -517.376    -733.996     213.118
  O     -516.031    -733.948     212.648
  C     -518.030    -732.673     212.708
  O     -517.605    -732.315     211.366
  C     -519.521    -732.989     212.715
  N     -523.166    -729.914     214.607
  C     -522.742    -730.147     213.335
  N     -521.767    -730.983     212.921
  C     -521.210    -731.626     213.964
  C     -521.534    -731.506     215.304
  C     -522.564    -730.593     215.624
  N     -522.993    -730.352     216.914
  N     -520.755    -732.320     216.081
  C     -519.939    -732.917     215.225
  N     -520.191    -732.537     213.923
  O     -519.146    -737.475     216.784
  O     -519.668    -738.464     214.491
  H     -518.152    -731.543     211.113
  H     -520.540    -738.444     214.927
  H     -523.250    -729.584     212.554
  H     -519.173    -733.622     215.497
  H     -520.050    -732.525     211.867
  H     -517.734    -731.839     213.363
  H     -517.390    -734.083     214.209
  H     -518.087    -735.128     211.412
  H     -519.206    -736.973     212.760
  H     -523.703    -729.658     217.049
  H     -522.526    -730.816     217.675
  H     -517.453    -736.979     212.936
  P     -514.820    -734.529     213.541
  C     -513.165    -732.674     212.676
  O     -513.480    -734.041     212.789
  O     -514.882    -735.985     213.829
  O     -514.861    -733.579     214.836
  H     -514.603    -732.658     214.664
  H     -512.133    -732.573     212.340
  H     -513.277    -732.179     213.644
  H     -513.823    -732.207     211.943
  H     -516.260    -740.215     215.661
  H     -517.986    -740.396     215.463
  H     -517.345    -739.664     216.914

 3  4  5  6  7  8  9  10  11  12  22  25  29  30  31  32 0
 6-311+G(2d,p)
 ****
 33  36  37 0
 6-311+G(2d,p)
 ****
 1  2  13  14  15  16  17  18  19  20  21  23  24  26 0
 3-21G
 ****
 27  28  34  35  38  39  40  41  42  43  44  45  46  47  48 0
 3-21G
 ****


