%nproc=1
%NoSave
%Mem=1900MB
#P OB98/GEN NMR

erre ene a

0 1
  C      210.866     866.796     410.623
  O      210.060     866.918     409.464
  P      210.733     867.573     408.160
  C      208.858     866.350     406.844
  O      209.590     867.553     407.027
  C      207.809     866.538     405.750
  O      206.712     867.337     406.239
  C      208.305     867.237     404.500
  O      208.992     866.373     403.628
  C      206.993     867.695     403.878
  O      206.372     866.594     403.201
  C      206.163     868.083     405.119
  N      203.385     872.183     406.352
  C      203.026     870.930     406.044
  N      203.838     869.887     405.705
  C      205.123     870.279     405.685
  C      205.629     871.528     405.957
  C      204.696     872.520     406.316
  N      205.056     873.806     406.666
  N      207.005     871.542     405.829
  C      207.317     870.311     405.507
  N      206.228     869.500     405.413
  O      211.756     866.437     407.683
  O      211.416     868.873     408.388
  H      206.261     865.882     403.858
  H      212.461     866.834     407.133
  H      201.968     870.708     406.054
  H      208.335     869.953     405.343
  H      205.111     867.807     405.016
  H      207.125     868.492     403.153
  H      208.914     868.118     404.759
  H      207.405     865.541     405.496
  H      208.355     866.087     407.777
  H      204.362     874.395     407.090
  H      206.043     873.992     406.834
  H      209.547     865.548     406.569
  P      210.113     867.026     402.678
  C      211.236     864.689     402.909
  O      210.936     865.781     402.070
  O      211.138     867.677     403.722
  O      209.570     868.017     401.697
  H      211.612     868.425     403.302
  H      211.505     863.831     402.279
  H      210.380     864.409     403.524
  H      212.086     864.938     403.554
  H      210.295     866.347     411.409
  H      211.196     867.766     410.931
  H      211.715     866.183     410.404

 3  4  5  6  7  8  9  10  11  12  22  25  29  30  31  32 0
 6-311+G(2d,p)
 ****
 33  36  37 0
 6-311+G(2d,p)
 ****
 1  2  13  14  15  16  17  18  19  20  21  23  24  26 0
 3-21G
 ****
 27  28  34  35  38  39  40  41  42  43  44  45  46  47  48 0
 3-21G
 ****


