%nproc=1
%NoSave
%Mem=1900MB
#P OB98/GEN NMR

erre ene a

0 1
  C     1148.822    -371.088     654.530
  O     1149.608    -369.998     654.006
  P     1148.814    -368.632     653.740
  C     1148.557    -369.227     651.224
  O     1148.973    -368.273     652.179
  C     1148.247    -368.565     649.862
  O     1147.177    -367.618     649.988
  C     1149.422    -367.780     649.294
  O     1150.393    -368.638     648.686
  C     1148.720    -366.898     648.274
  O     1148.524    -367.640     647.045
  C     1147.378    -366.607     648.941
  N     1145.499    -361.914     648.547
  C     1145.338    -363.003     647.717
  N     1144.558    -362.835     646.635
  N     1145.919    -364.164     647.920
  C     1146.654    -364.228     649.044
  C     1146.895    -363.201     649.981
  C     1146.267    -361.897     649.715
  O     1146.397    -360.915     650.401
  N     1147.660    -363.620     651.021
  C     1147.899    -364.896     650.743
  N     1147.293    -365.309     649.563
  O     1149.743    -367.512     654.442
  O     1147.421    -368.616     654.263
  H     1148.173    -366.986     646.389
  H     1149.214    -366.766     654.724
  H     1145.058    -361.046     648.345
  H     1148.467    -365.576     651.369
  H     1146.533    -366.702     648.233
  H     1149.306    -365.991     648.028
  H     1144.037    -362.004     646.459
  H     1149.887    -367.140     650.096
  H     1144.397    -363.622     646.016
  H     1147.959    -369.343     649.161
  H     1147.620    -369.736     651.579
  H     1149.325    -370.008     651.120
  P     1151.553    -369.200     649.606
  C     1153.405    -367.697     648.621
  O     1152.923    -368.991     648.776
  O     1151.326    -370.772     649.541
  O     1151.567    -368.694     650.997
  H     1151.641    -371.211     650.369
  H     1153.354    -367.133     649.547
  H     1152.834    -367.164     647.833
  H     1154.476    -367.741     648.300
  H     1149.448    -371.945     654.669
  H     1148.039    -371.326     653.841
  H     1148.396    -370.802     655.469

 3  4  5  6  7  8  9  10  11  12  23  26  30  31  33  0
 6-311+G(2d,p)
 ****
 35  36  37  38 0
 6-311+G(2d,p)
 ****
 1  2  13  14  15  16  17  18  19  20  21  22  24  25  27  28  29 0
 3-21G
 ****
 32  34  39  40  41  42  43  44  45  46  47  48  49 0
 3-21G
 ****


