%nproc=1
%NoSave
%Mem=1900MB
#P OB98/GEN NMR

erre ene a

0 1
  C      550.525    -616.530     357.899
  O      550.311    -617.233     356.691
  H      551.230    -615.717     357.709
  H      550.954    -617.197     358.650
  H      549.591    -616.104     358.271
  P      549.188    -618.373     356.653
  C      549.841    -618.958     354.223
  O      549.649    -619.446     355.549
  C      550.704    -619.936     353.431
  O      552.072    -619.874     353.902
  C      550.286    -621.389     353.577
  O      549.131    -621.678     352.820
  C      551.552    -622.099     353.119
  O      551.614    -622.164     351.685
  C      552.659    -621.171     353.670
  N      553.269    -621.705     354.887
  C      554.649    -621.815     354.890
  O      555.362    -621.470     353.942
  N      555.208    -622.382     356.009
  C      554.509    -622.971     357.022
  O      555.035    -623.683     357.871
  C      553.057    -622.771     356.996
  C      552.503    -622.176     355.936
  O      547.779    -617.898     356.519
  O      549.411    -619.165     358.027
  H      548.729    -618.887     358.670
  H      551.051    -622.923     351.427
  H      556.211    -622.500     355.997
  H      552.472    -623.167     357.826
  H      551.425    -622.048     355.882
  H      553.450    -621.032     352.917
  H      551.606    -623.117     353.499
  H      550.117    -621.626     354.639
  H      550.697    -619.629     352.374
  H      550.336    -617.984     354.275
  H      548.859    -618.832     353.747
  P      548.149    -622.876     353.268
  C      547.185    -623.126     350.892
  O      547.851    -623.775     351.975
  O      546.943    -622.455     354.038
  O      549.091    -623.829     354.154
  H      548.631    -624.019     354.998
  H      547.042    -623.822     350.092
  H      547.779    -622.305     350.548
  H      546.234    -622.764     351.224

 6  7  8  9  10  11  12  13  14  15  16  27  31  32  33  34  35 0
 6-311+G(2d,p)
 ****
 36  37 0
 6-311+G(2d,p)
 ****
 1  2  3  4  5  17  18  19  20  21  22  23  24  25 0
 3-21G
 ****
 26  28  29  30  38  39  40  41  42  43  44  45 0
 3-21G
 ****


