%nproc=1
%NoSave
%Mem=1900MB
#P OB98/GEN NMR

erre ene a

0 1
  C      -34.618     190.938     333.414
  O      -33.781     191.904     334.019
  H      -34.089     189.982     333.389
  H      -34.854     191.239     332.388
  H      -35.543     190.819     333.991
  P      -34.425     193.342     334.313
  C      -35.322     195.090     332.572
  O      -34.278     194.212     332.965
  C      -34.921     195.834     331.298
  O      -34.904     194.958     330.159
  C      -35.889     196.935     330.898
  O      -35.835     198.055     331.754
  C      -35.412     197.220     329.480
  O      -34.235     198.041     329.487
  C      -35.081     195.791     328.977
  N      -36.098     195.256     328.086
  C      -36.174     195.857     326.823
  O      -35.406     196.773     326.522
  N      -37.148     195.431     325.951
  C      -37.949     194.474     326.297
  N      -38.893     194.097     325.393
  C      -37.883     193.793     327.605
  C      -36.949     194.236     328.446
  O      -33.349     194.013     335.288
  O      -35.820     193.318     334.848
  H      -33.974     198.150     328.551
  H      -32.445     194.007     334.932
  H      -38.570     192.991     327.842
  H      -36.834     193.792     329.426
  H      -34.118     195.785     328.447
  H      -36.164     197.744     328.889
  H      -36.910     196.536     330.834
  H      -33.904     196.228     331.445
  H      -38.922     194.602     324.509
  H      -35.569     195.794     333.372
  H      -39.593     193.390     325.559
  H      -36.213     194.480     332.383
  P      -37.043     199.112     331.792
  C      -38.358     200.463     330.043
  O      -37.210     199.655     330.293
  O      -36.920     200.174     332.832
  O      -38.341     198.181     331.964
  H      -38.473     197.536     331.249
  H      -38.364     200.766     329.017
  H      -38.328     201.329     330.670
  H      -39.243     199.900     330.254

 6  7  8  9  10  11  12  13  14  15  16  26  30  31  32  33  35 0
 6-311+G(2d,p)
 ****
 37  38 0
 6-311+G(2d,p)
 ****
 1  2  3  4  5  17  18  19  20  21  22  23  24  25 0
 3-21G
 ****
 27  28  29  34  36  39  40  41  42  43  44  45  46 0
 3-21G
 ****


