%nproc=1
%NoSave
%Mem=1900MB
#P OB98/GEN NMR

erre ene a

0 1
  C     -217.468     314.349     169.650
  O     -216.775     315.528     169.301
  H     -217.514     314.282     170.740
  H     -216.942     313.470     169.266
  H     -218.489     314.368     169.257
  P     -216.678     315.942     167.754
  C     -214.119     316.235     167.786
  O     -215.218     315.514     167.248
  C     -213.244     316.772     166.655
  O     -212.229     317.659     167.179
  C     -212.496     315.689     165.887
  O     -213.367     315.001     165.006
  C     -211.420     316.522     165.207
  O     -211.937     317.197     164.050
  C     -211.074     317.545     166.317
  N     -209.877     317.165     167.081
  C     -209.260     318.187     167.800
  O     -209.668     319.344     167.805
  N     -208.122     317.832     168.478
  C     -207.516     316.610     168.432
  O     -206.386     316.398     168.870
  C     -208.248     315.555     167.722
  C     -209.369     315.880     167.076
  O     -217.074     317.346     167.432
  O     -217.633     314.881     167.022
  H     -218.491     315.306     166.824
  H     -212.344     316.514     163.486
  H     -207.642     318.573     168.961
  H     -207.833     314.556     167.714
  H     -209.916     315.120     166.517
  H     -210.901     318.536     165.885
  H     -210.573     315.919     164.873
  H     -212.016     314.994     166.584
  H     -213.884     317.358     165.979
  H     -213.527     315.553     168.410
  H     -214.495     317.054     168.409
  P     -213.767     313.473     165.268
  C     -212.062     312.657     163.537
  O     -212.509     312.559     164.879
  O     -215.058     313.046     164.647
  O     -213.831     313.345     166.861
  H     -214.691     312.968     167.120
  H     -211.224     312.008     163.392
  H     -211.772     313.666     163.331
  H     -212.853     312.371     162.876

 6  7  8  9  10  11  12  13  14  15  16  27  31  32  33  34  35 0
 6-311+G(2d,p)
 ****
 36  37 0
 6-311+G(2d,p)
 ****
 1  2  3  4  5  17  18  19  20  21  22  23  24  25 0
 3-21G
 ****
 26  28  29  30  38  39  40  41  42  43  44  45 0
 3-21G
 ****


