%nproc=1
%NoSave
%Mem=1900MB
#P OB98/GEN NMR

erre ene a

0 1
  C     -391.816     177.922     281.185
  O     -392.452     177.610     279.942
  P     -392.879     178.803     278.959
  C     -392.249     177.628     276.752
  O     -393.293     178.191     277.532
  C     -392.799     177.002     275.459
  O     -393.691     175.889     275.788
  C     -393.602     177.995     274.599
  O     -393.180     178.022     273.231
  C     -395.050     177.600     274.839
  O     -395.914     178.002     273.793
  C     -394.946     176.091     275.114
  N     -396.090     175.587     275.890
  C     -396.584     174.342     275.541
  O     -396.171     173.692     274.580
  N     -397.632     173.886     276.287
  C     -398.268     174.570     277.286
  O     -399.237     174.137     277.892
  C     -397.739     175.921     277.567
  C     -396.684     176.354     276.866
  O     -391.933     179.962     278.893
  O     -394.300     179.273     279.555
  H     -396.789     177.566     273.926
  H     -394.348     180.246     279.483
  H     -397.999     172.967     276.060
  H     -398.232     176.500     278.336
  H     -396.281     177.343     277.050
  H     -394.926     175.523     274.178
  H     -395.399     178.096     275.752
  H     -393.446     179.030     274.942
  H     -391.955     176.603     274.891
  H     -391.738     176.849     277.325
  H     -391.502     178.393     276.534
  P     -392.706     179.327     272.452
  C     -390.800     178.075     271.221
  O     -391.961     178.871     271.109
  O     -391.961     180.345     273.272
  O     -394.075     179.953     271.917
  H     -394.048     180.920     272.005
  H     -390.215     178.160     270.305
  H     -391.089     177.024     271.354
  H     -390.170     178.388     272.074
  H     -391.601     177.016     281.713
  H     -392.467     178.533     281.775
  H     -390.905     178.450     280.997

 3  4  5  6  7  8  9  10  11  12  13  23  28  29  30  31  32 0
 6-311+G(2d,p)
 ****
 33  34 0
 6-311+G(2d,p)
 ****
 1  2  14  15  16  17  18  19  20  21  22  24  25  26  27 0
 3-21G
 ****
 35  36  37  38  39  40  41  42  43  44  45 0
 3-21G
 ****


