%nproc=1
%NoSave
%Mem=1900MB
#P OB98/GEN NMR

erre ene a

0 1
  C      -76.023      74.126    -177.734
  O      -75.457      72.846    -177.529
  H      -75.378      74.891    -177.297
  H      -76.105      74.305    -178.809
  H      -77.021      74.180    -177.289
  P      -75.409      72.311    -176.018
  C      -76.047      69.863    -176.615
  O      -75.052      70.748    -176.119
  C      -75.898      69.687    -178.127
  O      -74.503      69.419    -178.432
  C      -76.727      68.530    -178.692
  O      -77.252      68.915    -179.965
  C      -75.708      67.417    -178.869
  O      -76.100      66.479    -179.865
  C      -74.451      68.211    -179.214
  N      -71.082      64.850    -181.062
  C      -72.126      65.486    -181.632
  N      -72.974      66.375    -181.069
  C      -72.622      66.621    -179.795
  C      -71.585      66.050    -179.079
  C      -70.794      65.113    -179.765
  N      -69.749      64.430    -179.182
  N      -71.567      66.531    -177.784
  C      -72.575      67.379    -177.723
  N      -73.244      67.463    -178.912
  O      -76.958      72.317    -175.604
  O      -74.574      73.107    -175.073
  H      -76.988      66.139    -179.633
  H      -77.228      73.225    -175.369
  H      -72.312      65.247    -182.676
  H      -72.866      67.945    -176.848
  H      -74.405      68.485    -180.276
  H      -75.582      66.879    -177.922
  H      -77.547      68.235    -178.035
  H      -76.152      70.634    -178.618
  H      -77.035      70.278    -176.392
  H      -69.272      63.735    -179.732
  H      -69.559      64.567    -178.200
  H      -75.946      68.892    -176.119
  P      -78.733      69.534    -179.978
  C      -78.710      71.168    -181.990
  O      -79.120      69.902    -181.491
  O      -78.544      70.959    -179.274
  O      -79.737      68.697    -179.252
  H      -79.212      71.077    -178.574
  H      -79.035      71.274    -183.004
  H      -77.643      71.239    -181.948
  H      -79.143      71.944    -181.393

 6  7  8  9  10  11  12  13  14  15  25  28  32  33  34  35 0
 6-311+G(2d,p)
 ****
 36  39  40 0
 6-311+G(2d,p)
 ****
 1  2  3  4  5  16  17  18  19  20  21  22  23  24 0
 3-21G
 ****
 26  27  29  30  31  37  38  41  42  43  44  45  46  47 0
 3-21G
 ****
 48 0
 3-21G
 ****


