%nproc=1
%NoSave
%Mem=1900MB
#P OB98/GEN NMR

erre ene a

0 1
  C      630.625    -528.589    -245.621
  O      630.286    -528.703    -244.231
  P      629.063    -529.659    -243.830
  C      629.894    -529.708    -241.364
  O      628.802    -529.525    -242.254
  C      629.505    -529.294    -239.939
  O      629.216    -527.885    -239.858
  C      628.259    -529.991    -239.422
  O      628.547    -531.291    -238.924
  C      627.850    -529.066    -238.284
  O      628.661    -529.344    -237.122
  C      628.202    -527.681    -238.851
  N      624.582    -524.117    -238.186
  C      625.548    -524.578    -237.367
  N      626.456    -525.542    -237.610
  C      626.320    -526.026    -238.855
  C      625.389    -525.651    -239.806
  C      624.481    -524.642    -239.434
  N      623.504    -524.162    -240.275
  N      625.549    -526.378    -240.969
  C      626.570    -527.174    -240.722
  N      627.063    -527.007    -239.461
  O      629.691    -531.127    -243.971
  O      627.857    -529.497    -244.695
  H      629.569    -529.499    -237.448
  H      629.006    -531.751    -244.283
  H      625.594    -524.121    -236.385
  H      626.987    -527.879    -241.437
  H      628.610    -527.012    -238.088
  H      626.813    -529.197    -237.983
  H      627.468    -530.006    -240.188
  H      630.351    -529.520    -239.275
  H      630.759    -529.126    -241.698
  H      622.909    -523.421    -239.948
  H      623.444    -524.544    -241.210
  H      630.204    -530.763    -241.393
  P      627.921    -532.539    -239.707
  C      629.621    -534.193    -238.647
  O      628.260    -533.828    -238.827
  O      628.870    -532.671    -240.984
  O      626.494    -532.364    -240.094
  H      628.373    -533.033    -241.743
  H      629.695    -534.877    -237.797
  H      630.246    -533.316    -238.453
  H      629.978    -534.702    -239.550
  H      631.454    -527.922    -245.732
  H      629.785    -528.207    -246.163
  H      630.889    -529.553    -246.004

 3  4  5  6  7  8  9  10  11  12  22  25  29  30  31  32 0
 6-311+G(2d,p)
 ****
 33  36  37 0
 6-311+G(2d,p)
 ****
 1  2  13  14  15  16  17  18  19  20  21  23  24  26 0
 3-21G
 ****
 27  28  34  35  38  39  40  41  42  43  44  45  46  47  48 0
 3-21G
 ****


