%nproc=1
%NoSave
%Mem=1900MB
#P OB98/GEN NMR

erre ene a

0 1
  C     -243.340     524.972    -169.957
  O     -242.337     524.633    -170.910
  P     -241.323     525.780    -171.391
  C     -239.463     526.971    -169.928
  O     -240.028     525.787    -170.452
  C     -238.066     526.649    -169.363
  O     -238.145     525.595    -168.387
  C     -237.076     526.194    -170.434
  O     -236.432     527.291    -171.061
  C     -236.132     525.317    -169.632
  O     -235.205     526.128    -168.881
  C     -237.121     524.605    -168.681
  N     -237.785     523.369    -169.171
  C     -237.008     522.286    -169.587
  O     -235.781     522.272    -169.596
  N     -237.707     521.176    -170.003
  C     -239.051     520.979    -169.886
  O     -239.612     519.939    -170.217
  C     -239.801     522.094    -169.299
  C     -239.153     523.218    -168.984
  O     -242.073     527.137    -171.018
  O     -240.967     525.716    -172.846
  H     -234.705     526.661    -169.521
  H     -242.291     527.639    -171.824
  H     -237.163     520.415    -170.381
  H     -240.866     521.958    -169.145
  H     -239.704     524.050    -168.552
  H     -236.625     524.342    -167.738
  H     -235.529     524.692    -170.288
  H     -237.578     525.565    -171.173
  H     -237.679     527.553    -168.864
  H     -240.093     527.385    -169.140
  H     -239.390     527.727    -170.713
  P     -236.316     527.340    -172.662
  C     -238.037     527.296    -174.567
  O     -237.826     527.555    -173.195
  O     -235.558     526.228    -173.301
  O     -235.648     528.773    -172.945
  H     -234.674     528.682    -173.059
  H     -239.116     527.318    -174.763
  H     -237.654     526.305    -174.829
  H     -237.555     528.061    -175.173
  H     -243.932     524.108    -169.739
  H     -243.966     525.742    -170.357
  H     -242.875     525.321    -169.059

 3  4  5  6  7  8  9  10  11  12  13  23  28  29  30  31  32 0
 6-311+G(2d,p)
 ****
 33  34 0
 6-311+G(2d,p)
 ****
 1  2  14  15  16  17  18  19  20  21  22  24  25  26  27 0
 3-21G
 ****
 35  36  37  38  39  40  41  42  43  44  45 0
 3-21G
 ****


