%nproc=1
%NoSave
%Mem=1900MB
#P OB98/GEN NMR

erre ene a

0 1
  C     -456.387      47.777     -75.752
  O     -455.060      47.709     -76.288
  P     -453.937      48.622     -75.591
  C     -452.089      46.834     -76.022
  O     -452.504      48.189     -76.162
  C     -451.144      46.445     -77.162
  O     -451.868      46.244     -78.392
  C     -450.118      47.519     -77.477
  O     -449.069      47.499     -76.525
  C     -449.677      47.138     -78.889
  O     -448.564      46.227     -78.866
  C     -450.934      46.453     -79.470
  N     -451.541      47.217     -80.554
  C     -450.990      47.017     -81.822
  O     -450.035      46.253     -81.977
  N     -451.521      47.714     -82.882
  C     -452.492      48.552     -82.685
  N     -452.974      49.216     -83.774
  C     -453.084      48.807     -81.353
  C     -452.562      48.118     -80.339
  O     -453.914      48.080     -74.082
  O     -454.225      50.087     -75.649
  H     -447.805      46.740     -78.522
  H     -453.700      48.808     -73.469
  H     -453.891      49.519     -81.236
  H     -452.933      48.240     -79.327
  H     -450.680      45.457     -79.860
  H     -449.359      48.015     -79.458
  H     -450.599      48.507     -77.496
  H     -450.638      45.507     -76.892
  H     -452.546      49.015     -84.666
  H     -452.961      46.171     -76.022
  H     -453.721      49.890     -83.730
  H     -451.602      46.712     -75.046
  P     -449.149      48.535     -75.300
  C     -447.906      46.833     -73.821
  O     -447.912      48.146     -74.347
  O     -450.399      47.966     -74.467
  O     -449.310      49.979     -75.632
  H     -450.620      48.570     -73.737
  H     -446.932      46.638     -73.373
  H     -448.091      46.099     -74.613
  H     -448.675      46.742     -73.044
  H     -457.029      47.124     -76.306
  H     -456.750      48.781     -75.825
  H     -456.373      47.477     -74.725

 3  4  5  6  7  8  9  10  11  12  13  21  23  27  28  29  30  32 0
 6-311+G(2d,p)
 ****
 34  35 0
 6-311+G(2d,p)
 ****
 1  2  14  15  16  17  18  19  20  22  24  25  26 0
 3-21G
 ****
 31  33  36  37  38  39  40  41  42  43  44  45  46 0
 3-21G
 ****


