%nproc=1
%NoSave
%Mem=1900MB
#P OB98/GEN NMR

erre ene a

0 1
  C      696.598     360.259      59.838
  O      696.848     361.625      60.103
  H      695.849     360.160      59.049
  H      697.527     359.790      59.501
  H      696.255     359.751      60.746
  P      695.594     362.510      60.579
  C      695.304     364.475      62.245
  O      696.186     363.770      61.383
  C      696.111     365.235      63.303
  O      696.739     364.270      64.180
  C      697.204     366.154      62.738
  O      696.992     367.509      63.168
  C      698.492     365.645      63.371
  O      699.376     366.692      63.769
  C      697.999     364.833      64.566
  N      701.925     363.676      67.604
  C      700.954     364.608      67.716
  N      699.876     364.795      66.929
  C      699.843     363.878      65.951
  C      700.748     362.858      65.716
  C      701.845     362.780      66.588
  N      702.872     361.873      66.437
  N      700.387     362.120      64.603
  C      699.303     362.714      64.149
  N      698.945     363.793      64.914
  O      694.923     361.612      61.723
  O      694.616     362.850      59.500
  H      699.513     367.254      62.983
  H      693.960     361.558      61.575
  H      701.054     365.299      68.551
  H      698.763     362.435      63.247
  H      697.837     365.461      65.450
  H      699.014     365.007      62.644
  H      697.261     366.121      61.642
  H      695.404     365.815      63.914
  H      694.636     363.765      62.749
  H      703.676     361.968      67.044
  H      702.874     361.284      65.622
  H      694.698     365.162      61.652
  P      696.499     368.554      62.049
  C      695.093     370.733      62.224
  O      696.091     369.906      62.808
  O      695.090     367.947      61.584
  O      697.450     368.710      60.905
  H      694.897     368.220      60.667
  H      694.933     371.591      62.844
  H      694.180     370.182      62.135
  H      695.415     371.049      61.254

 6  7  8  9  10  11  12  13  14  15  25  28  32  33  34  35 0
 6-311+G(2d,p)
 ****
 36  39  40 0
 6-311+G(2d,p)
 ****
 1  2  3  4  5  16  17  18  19  20  21  22  23  24 0
 3-21G
 ****
 26  27  29  30  31  37  38  41  42  43  44  45  46  47  48 0
 3-21G
 ****


