%nproc=1
%NoSave
%Mem=1900MB
#P OB98/GEN NMR

erre ene a

0 1
  C     -475.457    -754.533     293.060
  O     -475.119    -754.211     294.397
  H     -476.514    -754.297     292.896
  H     -475.304    -755.597     292.884
  H     -474.850    -753.941     292.357
  P     -473.567    -754.289     294.788
  C     -473.954    -756.071     296.627
  O     -473.315    -755.748     295.402
  C     -473.506    -757.458     297.107
  O     -474.240    -758.489     296.404
  C     -472.022    -757.752     296.874
  O     -471.204    -757.187     297.889
  C     -472.026    -759.263     296.924
  O     -472.100    -759.703     298.304
  C     -473.331    -759.614     296.182
  N     -470.599    -761.992     292.649
  C     -470.466    -762.007     294.018
  N     -469.462    -762.742     294.523
  N     -471.259    -761.337     294.830
  C     -472.210    -760.641     294.177
  C     -472.449    -760.552     292.826
  C     -471.593    -761.297     291.938
  O     -471.675    -761.340     290.720
  N     -473.525    -759.743     292.551
  C     -473.920    -759.320     293.745
  N     -473.151    -759.821     294.769
  O     -473.464    -753.333     296.073
  O     -472.617    -753.858     293.715
  H     -472.935    -759.359     298.653
  H     -472.609    -752.862     296.050
  H     -469.974    -762.511     292.047
  H     -474.757    -758.662     293.905
  H     -473.810    -760.516     296.593
  H     -471.120    -759.716     296.503
  H     -468.790    -763.221     293.942
  H     -471.715    -757.423     295.872
  H     -469.348    -762.773     295.515
  H     -473.744    -757.541     298.170
  H     -475.037    -756.089     296.482
  H     -473.708    -755.309     297.372
  P     -469.614    -757.313     297.720
  C     -469.386    -758.461     300.046
  O     -469.170    -758.558     298.628
  O     -469.055    -756.041     298.521
  O     -469.123    -757.334     296.301
  H     -468.185    -755.796     298.193
  H     -469.045    -759.357     300.521
  H     -470.430    -758.330     300.240
  H     -468.844    -757.624     300.433

 6  7  8  9  10  11  12  13  14  15  26  29  33  34 0
 6-311+G(2d,p)
 ****
 36  38  39  40  41 0
 6-311+G(2d,p)
 ****
 1  2  3  4  5  16  17  18  19  20  21  22  23  24  25 0
 3-21G
 ****
 27  28  30  31  32  35  37  42  43  44  45  46  47 0
 3-21G
 ****
 48  49 0
 3-21G
 ****


