%nproc=1
%NoSave
%Mem=1900MB
#P OB98/GEN NMR

erre ene a

0 1
  C     -753.175    -767.612    -890.670
  O     -751.962    -767.482    -891.400
  H     -753.831    -768.318    -891.200
  H     -753.679    -766.643    -890.630
  H     -753.000    -767.990    -889.670
  P     -750.723    -766.821    -890.630
  C     -749.071    -768.820    -890.760
  O     -749.397    -767.524    -891.220
  C     -748.397    -769.637    -891.880
  O     -749.414    -769.992    -892.880
  C     -747.271    -768.865    -892.610
  O     -746.236    -769.797    -892.960
  C     -747.954    -768.413    -893.910
  O     -747.016    -768.161    -894.950
  C     -748.872    -769.618    -894.160
  N     -749.633    -768.208    -898.930
  C     -748.490    -768.683    -898.300
  N     -747.354    -768.729    -899.030
  N     -748.468    -769.066    -897.040
  C     -749.668    -768.983    -896.440
  C     -750.873    -768.540    -896.950
  C     -750.881    -768.101    -898.330
  O     -751.864    -767.673    -898.940
  N     -751.850    -768.556    -895.990
  C     -751.246    -768.996    -894.900
  N     -749.935    -769.260    -895.110
  O     -750.848    -767.442    -889.150
  O     -750.709    -765.332    -890.600
  H     -747.517    -767.888    -895.740
  H     -751.348    -766.833    -888.580
  H     -749.589    -767.927    -899.890
  H     -751.709    -769.120    -893.930
  H     -748.338    -770.465    -894.580
  H     -748.530    -767.502    -893.720
  H     -747.304    -768.486    -900.000
  H     -746.847    -768.038    -892.050
  H     -746.527    -769.111    -898.600
  H     -748.020    -770.570    -891.460
  H     -749.994    -769.340    -890.460
  H     -748.398    -768.753    -889.890
  P     -744.780    -769.202    -893.290
  C     -743.467    -770.784    -891.690
  O     -743.685    -770.363    -893.030
  O     -744.516    -768.177    -892.080
  O     -744.690    -768.522    -894.620
  H     -744.009    -767.417    -892.400
  H     -742.721    -771.551    -891.674
  H     -744.380    -771.166    -891.283
  H     -743.136    -769.952    -891.104

 6  7  8  9  10  11  12  13  14  15  26  29  33  34 0
 6-311+G(2d,p)
 ****
 36  38  39  40  41 0
 6-311+G(2d,p)
 ****
 1  2  3  4  5  16  17  18  19  20  21  22  23  24  25 0
 3-21G
 ****
 27  28  30  31  32  35  37  42  43  44  45  46  47 0
 3-21G
 ****
 48  49 0
 3-21G
 ****


