%nproc=1
%NoSave
%Mem=1900MB
#P OB98/GEN NMR

erre ene a

0 1
  C     -482.505      58.932     187.327
  O     -481.605      58.178     188.114
  P     -480.035      58.113     187.834
  C     -480.020      55.917     189.228
  O     -479.539      56.601     188.073
  C     -479.663      54.420     189.232
  O     -480.230      53.786     188.064
  C     -478.142      54.239     189.126
  O     -477.333      54.315     190.282
  C     -477.949      52.976     188.293
  O     -477.702      51.823     189.095
  C     -479.284      52.830     187.549
  N     -479.063      50.520     183.039
  C     -479.459      50.009     184.260
  N     -479.632      48.671     184.314
  N     -479.640      50.739     185.327
  C     -479.336      52.053     185.142
  C     -478.947      52.679     183.980
  C     -478.788      51.859     182.797
  O     -478.355      52.263     181.719
  N     -478.654      54.002     184.186
  C     -478.815      54.174     185.484
  N     -479.194      53.008     186.111
  O     -479.205      59.230     188.389
  O     -479.994      58.232     186.226
  H     -477.730      51.041     188.517
  H     -479.185      58.729     185.985
  H     -478.863      49.894     182.268
  H     -478.646      55.101     186.015
  H     -479.716      51.842     187.725
  H     -477.093      53.081     187.621
  H     -479.360      48.055     183.551
  H     -477.771      55.054     188.485
  H     -479.756      48.238     185.229
  H     -480.107      53.913     190.095
  H     -481.106      56.056     189.265
  H     -479.604      56.383     190.128
  P     -475.979      55.148     190.433
  C     -475.451      53.767     192.524
  O     -474.947      54.285     191.303
  O     -476.356      56.357     191.424
  O     -475.415      55.690     189.150
  H     -475.723      57.094     191.303
  H     -474.617      53.465     193.158
  H     -476.067      52.882     192.312
  H     -476.049      54.517     193.044
  H     -483.497      58.817     187.711
  H     -482.471      58.585     186.315
  H     -482.228      59.965     187.359

 3  4  5  6  7  8  9  10  11  12  23  26  30  31 0
 6-311+G(2d,p)
 ****
 33  35  36  37  38 0
 6-311+G(2d,p)
 ****
 1  2  13  14  15  16  17  18  19  20  21  22  24  25 0
 3-21G
 ****
 27  28  29  32  34  39  40  41  42  43  44  45  46  47  48  49 0
 3-21G
 ****


