%nproc=1
%NoSave
%Mem=1900MB
#P OB98/GEN NMR

erre ene a

0 1
  C     -271.028      63.218      73.461
  O     -271.121      62.967      74.847
  H     -271.968      63.660      73.120
  H     -270.860      62.285      72.917
  H     -270.215      63.919      73.259
  P     -269.860      62.259      75.542
  C     -268.530      64.460      75.908
  O     -268.592      63.199      75.257
  C     -267.136      64.667      76.489
  O     -267.011      66.016      76.996
  C     -266.813      63.760      77.668
  O     -266.465      62.450      77.258
  C     -265.650      64.508      78.298
  O     -264.407      64.190      77.651
  C     -266.037      65.984      78.058
  N     -266.530      66.628      79.273
  C     -265.635      66.674      80.337
  O     -264.498      66.208      80.282
  N     -266.107      67.241      81.489
  C     -267.367      67.722      81.687
  O     -267.749      68.151      82.767
  C     -268.266      67.659      80.522
  C     -267.816      67.115      79.388
  O     -269.604      60.981      74.611
  O     -270.054      61.885      76.972
  H     -269.947      60.179      75.047
  H     -263.776      64.888      77.917
  H     -265.476      67.273      82.275
  H     -269.273      68.038      80.643
  H     -268.467      67.040      78.521
  H     -265.167      66.554      77.706
  H     -265.532      64.255      79.350
  H     -267.650      63.746      78.377
  H     -266.401      64.533      75.685
  H     -269.264      64.487      76.720
  H     -268.774      65.247      75.187
  P     -266.212      61.337      78.385
  C     -268.741      61.044      79.033
  O     -267.438      61.445      79.415
  O     -264.981      61.975      79.179
  O     -265.972      59.972      77.838
  H     -265.024      62.944      79.233
  H     -269.414      61.192      79.852
  H     -268.731      60.009      78.762
  H     -269.063      61.628      78.197

 6  7  8  9  10  11  12  13  14  15  16  27  31  32  33  34  35 0
 6-311+G(2d,p)
 ****
 36  37 0
 6-311+G(2d,p)
 ****
 1  2  3  4  5  17  18  19  20  21  22  23  24  25 0
 3-21G
 ****
 26  28  29  30  38  39  40  41  42  43  44  45 0
 3-21G
 ****


