%nproc=1
%NoSave
%Mem=1900MB
#P OB98/GEN NMR

erre ene a

0 1
  C       -2.640     -37.157    -121.025
  O       -4.011     -36.926    -120.695
  P       -5.059     -38.131    -120.830
  C       -4.259     -40.130    -119.413
  O       -5.068     -38.963    -119.455
  C       -3.916     -40.505    -117.965
  O       -3.188     -39.422    -117.314
  C       -5.165     -40.780    -117.116
  O       -4.893     -41.790    -116.130
  C       -5.376     -39.467    -116.388
  O       -6.171     -39.635    -115.216
  C       -3.928     -39.049    -116.132
  N       -3.892     -35.426    -112.512
  C       -3.978     -36.773    -112.435
  N       -3.957     -37.676    -113.438
  C       -3.820     -37.060    -114.626
  C       -3.710     -35.697    -114.862
  C       -3.758     -34.859    -113.734
  N       -3.700     -33.485    -113.815
  N       -3.586     -35.438    -116.211
  C       -3.670     -36.622    -116.785
  N       -3.778     -37.634    -115.869
  O       -4.939     -38.958    -122.066
  O       -6.475     -37.376    -120.781
  H       -6.138     -38.798    -114.717
  H       -7.071     -37.774    -121.445
  H       -4.082     -37.181    -111.431
  H       -3.673     -36.799    -117.851
  H       -3.492     -39.593    -115.285
  H       -5.884     -38.753    -117.047
  H       -6.049     -41.079    -117.691
  H       -3.253     -41.378    -117.969
  H       -3.342     -39.964    -119.981
  H       -3.860     -32.962    -112.966
  H       -3.750     -33.048    -114.724
  H       -4.782     -40.948    -119.922
  P       -5.719     -43.165    -116.282
  C       -4.292     -44.527    -117.998
  O       -4.635     -44.285    -116.652
  O       -6.895     -43.057    -117.195
  O       -6.113     -43.482    -114.763
  H       -5.372     -43.445    -114.134
  H       -3.453     -45.227    -118.029
  H       -3.989     -43.602    -118.498
  H       -5.139     -44.974    -118.528
  H       -2.082     -36.256    -120.880
  H       -2.566     -37.462    -122.048
  H       -2.246     -37.926    -120.394

 3  4  5  6  7  8  9  10  11  12  22  25  29  30  31  32 0
 6-311+G(2d,p)
 ****
 33  36  37 0
 6-311+G(2d,p)
 ****
 1  2  13  14  15  16  17  18  19  20  21  23  24  26 0
 3-21G
 ****
 27  28  34  35  38  39  40  41  42  43  44  45  46  47  48 0
 3-21G
 ****


