%nproc=1
%NoSave
%Mem=1900MB
#P OB98/GEN NMR

erre ene a

0 1
  C       27.227     -69.610     -91.571
  O       27.238     -69.466     -92.983
  P       27.708     -68.056     -93.585
  C       30.231     -68.538     -93.893
  O       29.239     -67.857     -93.137
  C       31.379     -67.602     -94.249
  O       32.453     -68.381     -94.849
  C       31.005     -66.491     -95.244
  O       31.589     -65.253     -94.811
  C       31.706     -66.908     -96.526
  O       31.981     -65.797     -97.370
  C       32.946     -67.595     -95.951
  N       36.726     -67.661     -99.300
  C       36.420     -66.724     -98.333
  N       37.202     -65.624     -98.294
  N       35.437     -66.850     -97.482
  C       34.758     -68.017     -97.617
  C       34.970     -69.026     -98.530
  C       36.025     -68.844     -99.502
  O       36.288     -69.594    -100.440
  N       34.087     -70.060     -98.344
  C       33.340     -69.679     -97.325
  N       33.677     -68.424     -96.883
  O       26.908     -67.000     -92.687
  O       27.425     -67.856     -95.034
  H       32.395     -66.151     -98.180
  H       26.377     -66.413     -93.260
  H       37.482     -67.505     -99.941
  H       32.528     -70.256     -96.900
  H       33.646     -66.848     -95.548
  H       31.070     -67.616     -97.069
  H       37.998     -65.480     -98.895
  H       29.927     -66.362     -95.386
  H       37.010     -64.936     -97.578
  H       31.780     -67.173     -93.322
  H       29.781     -68.921     -94.815
  H       30.603     -69.385     -93.306
  P       30.597     -63.990     -94.755
  C       30.607     -64.307     -92.170
  O       29.849     -64.087     -93.345
  O       29.462     -64.365     -95.818
  O       31.259     -62.688     -95.061
  H       29.032     -63.558     -96.159
  H       31.682     -64.230     -92.354
  H       30.387     -65.307     -91.790
  H       30.322     -63.566     -91.419
  H       26.894     -70.594     -91.315
  H       26.564     -68.887     -91.144
  H       28.215     -69.457     -91.189

 3  4  5  6  7  8  9  10  11  12  23  26  30  31  33  0
 6-311+G(2d,p)
 ****
 35  36  37  38 0
 6-311+G(2d,p)
 ****
 1  2  13  14  15  16  17  18  19  20  21  22  24  25  27  28  29 0
 3-21G
 ****
 32  34  39  40  41  42  43  44  45  46  47  48  49 0
 3-21G
 ****


