%nproc=1
%NoSave
%Mem=1900MB
#P OB98/GEN NMR

erre ene a

0 1
  C      118.696      -8.372    -363.025
  O      119.805      -9.057    -362.484
  H      118.607      -7.399    -362.532
  H      117.779      -8.940    -362.844
  H      118.832      -8.213    -364.098
  P      120.111     -10.519    -363.071
  C      118.926     -11.773    -361.132
  O      118.939     -11.476    -362.521
  C      118.766     -13.277    -360.909
  O      119.060     -13.583    -359.517
  C      117.354     -13.804    -361.207
  O      117.462     -15.098    -361.811
  C      116.745     -13.951    -359.827
  O      115.671     -14.888    -359.809
  C      117.970     -14.377    -359.022
  N      115.900     -16.397    -354.896
  C      115.958     -16.873    -356.194
  N      115.376     -18.066    -356.438
  N      116.542     -16.226    -357.175
  C      117.104     -15.057    -356.787
  C      117.108     -14.476    -355.539
  C      116.441     -15.190    -354.469
  O      116.337     -14.811    -353.306
  N      117.759     -13.266    -355.559
  C      118.152     -13.117    -356.814
  N      117.782     -14.182    -357.593
  O      121.393     -10.995    -362.239
  O      120.338     -10.587    -364.543
  H      115.959     -15.684    -360.306
  H      121.951     -11.598    -362.769
  H      115.430     -16.929    -354.186
  H      118.694     -12.267    -357.206
  H      118.217     -15.440    -359.167
  H      116.364     -12.984    -359.475
  H      114.938     -18.635    -355.726
  H      116.772     -13.143    -361.854
  H      115.416     -18.438    -357.380
  H      119.517     -13.803    -361.514
  H      118.091     -11.241    -360.661
  H      119.867     -11.429    -360.683
  P      116.970     -15.254    -363.332
  C      114.965     -16.831    -362.844
  O      115.394     -15.567    -363.336
  O      117.631     -16.643    -363.782
  O      117.406     -14.135    -364.223
  H      118.359     -16.476    -364.406
  H      113.899     -16.896    -362.908
  H      115.268     -16.938    -361.823
  H      115.406     -17.610    -363.430

 6  7  8  9  10  11  12  13  14  15  26  29  33  34 0
 6-311+G(2d,p)
 ****
 36  38  39  40  41 0
 6-311+G(2d,p)
 ****
 1  2  3  4  5  16  17  18  19  20  21  22  23  24  25 0
 3-21G
 ****
 27  28  30  31  32  35  37  42  43  44  45  46  47 0
 3-21G
 ****
 48  49 0
 3-21G
 ****


