%nproc=1
%NoSave
%Mem=1900MB
#P OB98/GEN NMR

erre ene a

0 1
  C      -29.071      23.035    -663.448
  O      -27.948      22.976    -662.592
  P      -27.789      21.748    -661.561
  C      -25.277      21.281    -661.856
  O      -26.288      21.765    -660.980
  C      -23.915      21.243    -661.152
  O      -23.382      22.589    -660.975
  C      -23.979      20.657    -659.748
  O      -24.147      19.249    -659.752
  C      -22.645      21.141    -659.175
  O      -21.571      20.294    -659.601
  C      -22.529      22.548    -659.826
  N      -22.838      23.615    -658.863
  C      -22.040      23.684    -657.710
  O      -21.190      22.804    -657.506
  N      -22.220      24.720    -656.857
  C      -23.194      25.554    -657.036
  N      -23.302      26.600    -656.161
  C      -24.169      25.432    -658.141
  C      -23.909      24.459    -659.030
  O      -28.256      20.423    -662.073
  O      -28.665      22.206    -660.297
  H      -29.267      21.467    -660.039
  H      -20.788      20.538    -659.063
  H      -25.008      26.110    -658.224
  H      -24.555      24.300    -659.897
  H      -21.497      22.690    -660.200
  H      -22.645      21.144    -658.075
  H      -24.806      21.119    -659.175
  H      -23.213      20.675    -661.773
  H      -22.622      26.656    -655.425
  H      -25.205      21.948    -662.741
  H      -23.806      27.455    -656.397
  H      -25.544      20.284    -662.210
  P      -25.459      18.658    -659.042
  C      -24.873      16.309    -659.999
  O      -25.235      17.072    -658.860
  O      -26.580      18.738    -660.208
  O      -25.886      19.397    -657.820
  H      -27.444      18.979    -659.806
  H      -24.413      15.376    -659.653
  H      -24.141      16.842    -660.624
  H      -25.761      16.074    -660.588
  H      -29.009      23.912    -664.058
  H      -29.965      23.071    -662.861
  H      -29.089      22.167    -664.073

 3  4  5  6  7  8  9  10  11  12  13  24  27  28  29  30  32 0
 6-311+G(2d,p)
 ****
 34  35 0
 6-311+G(2d,p)
 ****
 1  2  14  15  16  17  18  19  20  21  22  23  25  26 0
 3-21G
 ****
 31  33  36  37  38  39  40  41  42  43  44  45  46 0
 3-21G
 ****


