%nproc=1
%NoSave
%Mem=1900MB
#P OB98/GEN NMR

erre ene a

0 1
  C     -838.604     183.747    -894.910
  O     -838.732     185.006    -895.590
  P     -839.154     184.951    -897.140
  C     -840.397     187.255    -897.080
  O     -840.493     185.844    -897.330
  C     -841.008     187.579    -895.730
  O     -840.235     187.011    -894.620
  C     -841.045     189.084    -895.440
  O     -842.107     189.690    -896.170
  C     -841.283     189.060    -893.920
  O     -842.659     188.801    -893.620
  C     -840.396     187.883    -893.490
  N     -837.865     189.825    -889.480
  C     -839.164     189.571    -889.680
  N     -839.757     189.059    -890.770
  C     -838.859     188.787    -891.730
  C     -837.482     189.006    -891.690
  C     -836.970     189.557    -890.490
  N     -835.662     189.845    -890.300
  N     -836.871     188.609    -892.860
  C     -837.900     188.197    -893.630
  N     -839.090     188.277    -892.970
  O     -839.692     183.446    -897.330
  O     -838.022     185.260    -898.070
  H     -842.719     188.629    -892.660
  H     -839.035     182.932    -897.850
  H     -839.814     189.791    -888.840
  H     -837.770     187.820    -894.630
  H     -840.869     187.280    -892.690
  H     -840.991     190.019    -893.440
  H     -840.102     189.546    -895.680
  H     -842.015     187.144    -895.680
  H     -840.908     187.811    -897.860
  H     -835.387     190.316    -889.450
  H     -834.996     189.726    -891.070
  H     -839.336     187.537    -897.110
  P     -841.716     190.526    -897.470
  C     -842.968     189.088    -899.200
  O     -841.708     189.441    -898.680
  O     -840.131     190.804    -897.220
  O     -842.524     191.752    -897.720
  H     -839.671     189.969    -896.950
  H     -842.812     188.360    -900.000
  H     -843.464     189.990    -899.600
  H     -843.575     188.650    -898.410
  H     -838.321     183.918    -893.892
  H     -837.855     183.155    -895.394
  H     -839.540     183.230    -894.937

 3  4  5  6  7  8  9  10  11  12  22  25  29  30  31  32 0
 6-311+G(2d,p)
 ****
 33  36  37 0
 6-311+G(2d,p)
 ****
 1  2  13  14  15  16  17  18  19  20  21  23  24  26 0
 3-21G
 ****
 27  28  34  35  38  39  40  41  42  43  44  45  46  47  48 0
 3-21G
 ****


