%nproc=1
%NoSave
%Mem=1900MB
#P OB98/GEN NMR

erre ene a

0 1
  C     -630.177    -245.307     249.712
  O     -629.288    -246.406     249.795
  P     -628.519    -246.737     251.154
  C     -626.099    -246.242     250.254
  O     -627.135    -245.937     251.160
  C     -624.904    -245.321     250.533
  O     -625.236    -243.960     250.182
  C     -624.515    -245.343     252.009
  O     -623.472    -246.280     252.231
  C     -624.096    -243.904     252.262
  O     -622.751    -243.684     251.815
  C     -625.093    -243.132     251.366
  N     -626.442    -242.860     251.896
  C     -627.051    -241.635     251.634
  O     -626.546    -240.755     250.948
  N     -628.281    -241.442     252.222
  C     -628.949    -242.356     252.985
  O     -629.917    -242.095     253.692
  C     -628.384    -243.708     252.994
  C     -627.168    -243.887     252.483
  O     -628.062    -248.260     250.951
  O     -629.313    -246.557     252.404
  H     -622.159    -244.137     252.442
  H     -628.674    -248.868     251.402
  H     -628.662    -240.507     252.149
  H     -628.954    -244.498     253.469
  H     -626.708    -244.874     252.510
  H     -624.671    -242.169     251.051
  H     -624.108    -243.675     253.327
  H     -625.392    -245.570     252.630
  H     -624.060    -245.632     249.906
  H     -626.451    -246.112     249.222
  H     -625.803    -247.289     250.362
  P     -622.931    -246.520     253.721
  C     -620.541    -246.019     252.944
  O     -621.587    -245.650     253.823
  O     -622.814    -247.945     254.140
  O     -623.987    -245.721     254.625
  H     -624.654    -246.340     254.983
  H     -619.762    -245.251     252.987
  H     -620.911    -246.091     251.915
  H     -620.109    -246.973     253.252
  H     -630.588    -245.255     248.726
  H     -629.647    -244.402     249.926
  H     -630.968    -245.433     250.422

 3  4  5  6  7  8  9  10  11  12  13  23  28  29  30  31  32 0
 6-311+G(2d,p)
 ****
 33  34 0
 6-311+G(2d,p)
 ****
 1  2  14  15  16  17  18  19  20  21  22  24  25  26  27 0
 3-21G
 ****
 35  36  37  38  39  40  41  42  43  44  45 0
 3-21G
 ****


