%nproc=1
%NoSave
%Mem=1900MB
#P OB98/GEN NMR

erre ene a

0 1
  C      -46.189      92.051     135.808
  O      -44.798      92.281     135.917
  H      -46.487      92.193     134.766
  H      -46.734      92.764     136.431
  H      -46.431      91.029     136.112
  P      -44.119      91.960     137.331
  C      -42.394      90.184     136.456
  O      -43.539      90.463     137.252
  C      -42.654      88.961     135.579
  O      -43.641      89.244     134.568
  C      -41.443      88.504     134.785
  O      -40.454      87.905     135.591
  C      -42.103      87.547     133.804
  O      -42.374      86.280     134.418
  C      -43.422      88.296     133.489
  N      -43.395      88.952     132.190
  C      -43.408      88.102     131.077
  O      -43.450      86.881     131.229
  N      -43.341      88.659     129.824
  C      -43.294      89.946     129.690
  N      -43.220      90.433     128.424
  C      -43.305      90.879     130.835
  C      -43.351      90.319     132.042
  O      -45.382      91.798     138.297
  O      -43.109      92.958     137.795
  H      -41.506      85.898     134.655
  H      -46.038      91.158     137.976
  H      -43.273      91.946     130.675
  H      -43.362      90.930     132.934
  H      -44.272      87.601     133.501
  H      -41.472      87.350     132.935
  H      -41.029      89.341     134.210
  H      -43.041      88.159     136.221
  H      -43.193      89.764     127.664
  H      -41.511      90.029     137.082
  H      -43.145      91.414     128.199
  H      -42.205      91.063     135.831
  P      -39.064      88.655     135.869
  C      -39.048      88.756     138.441
  O      -39.263      89.478     137.234
  O      -38.538      89.461     134.730
  O      -38.092      87.468     136.331
  H      -38.384      86.989     137.126
  H      -39.209      89.404     139.277
  H      -38.043      88.388     138.462
  H      -39.730      87.933     138.491

 6  7  8  9  10  11  12  13  14  15  16  26  30  31  32  33  35 0
 6-311+G(2d,p)
 ****
 37  38 0
 6-311+G(2d,p)
 ****
 1  2  3  4  5  17  18  19  20  21  22  23  24  25 0
 3-21G
 ****
 27  28  29  34  36  39  40  41  42  43  44  45  46 0
 3-21G
 ****


