%nproc=1
%NoSave
%Mem=1900MB
#P OB98/GEN NMR

erre ene a

0 1
  C      113.705     -97.179    -302.662
  O      114.659     -97.502    -303.656
  H      112.737     -97.005    -303.143
  H      114.006     -96.266    -302.138
  H      113.602     -98.001    -301.946
  P      116.082     -98.020    -303.136
  C      117.055     -95.681    -302.448
  O      116.600     -96.965    -302.036
  C      118.293     -95.279    -301.650
  O      117.971     -95.117    -300.255
  C      119.398     -96.321    -301.649
  O      120.071     -96.407    -302.887
  C      120.272     -95.802    -300.513
  O      121.181     -94.791    -300.963
  C      119.230     -95.211    -299.537
  N      119.118     -95.995    -298.322
  C      118.510     -95.343    -297.241
  O      118.092     -94.186    -297.367
  N      118.422     -95.998    -296.042
  C      118.922     -97.190    -295.918
  N      118.835     -97.769    -294.694
  C      119.571     -97.914    -297.032
  C      119.633     -97.265    -298.197
  O      117.031     -97.736    -304.391
  O      116.100     -99.435    -302.665
  H      121.841     -95.244    -301.530
  H      116.943     -96.837    -304.754
  H      119.962     -98.908    -296.882
  H      120.093     -97.719    -299.064
  H      119.502     -94.181    -299.261
  H      120.880     -96.604    -300.076
  H      118.996     -97.301    -301.348
  H      118.652     -94.315    -302.036
  H      118.433     -97.218    -293.945
  H      116.263     -94.932    -302.323
  H      119.256     -98.658    -294.461
  H      117.290     -95.737    -303.514
  P      120.000     -97.729    -303.789
  C      122.523     -98.220    -303.575
  O      121.204     -98.681    -303.301
  O      119.957     -97.499    -305.256
  O      118.719     -98.495    -303.205
  H      118.772     -98.728    -302.262
  H      123.233     -98.931    -303.207
  H      122.679     -97.278    -303.093
  H      122.648     -98.105    -304.631

 6  7  8  9  10  11  12  13  14  15  16  26  30  31  32  33  35 0
 6-311+G(2d,p)
 ****
 37  38 0
 6-311+G(2d,p)
 ****
 1  2  3  4  5  17  18  19  20  21  22  23  24  25 0
 3-21G
 ****
 27  28  29  34  36  39  40  41  42  43  44  45  46 0
 3-21G
 ****


