%nproc=1
%NoSave
%Mem=1900MB
#P OB98/GEN NMR

erre ene a

0 1
  C      -65.726     204.449    -281.147
  O      -66.378     203.410    -281.892
  P      -65.475     202.470    -282.824
  C      -65.885     200.265    -281.504
  O      -66.032     200.968    -282.728
  C      -66.920     199.142    -281.401
  O      -68.229     199.648    -281.070
  C      -67.106     198.363    -282.698
  O      -66.102     197.373    -282.859
  C      -68.457     197.710    -282.457
  O      -68.298     196.549    -281.617
  C      -69.220     198.807    -281.705
  N      -73.111     198.802    -285.040
  C      -72.484     197.799    -284.382
  N      -71.443     197.879    -283.524
  C      -71.062     199.156    -283.355
  C      -71.605     200.281    -283.956
  C      -72.677     200.069    -284.836
  N      -73.313     201.094    -285.503
  N      -70.944     201.420    -283.547
  C      -70.027     200.992    -282.701
  N      -70.056     199.630    -282.559
  O      -64.089     202.399    -282.027
  O      -65.285     202.996    -284.208
  H      -69.166     196.371    -281.212
  H      -63.346     202.349    -282.660
  H      -72.865     196.801    -284.571
  H      -69.331     201.626    -282.171
  H      -69.864     198.400    -280.915
  H      -68.930     197.371    -283.382
  H      -67.162     199.042    -283.558
  H      -66.603     198.457    -280.604
  H      -65.993     200.952    -280.659
  H      -74.097     200.870    -286.094
  H      -73.014     202.042    -285.335
  H      -64.866     199.865    -281.443
  P      -65.952     196.710    -284.313
  C      -63.632     197.793    -284.746
  O      -64.375     196.605    -284.582
  O      -66.438     197.882    -285.294
  O      -66.738     195.458    -284.503
  H      -66.839     197.497    -286.098
  H      -62.571     197.566    -284.616
  H      -63.922     198.547    -284.008
  H      -63.784     198.191    -285.754
  H      -66.453     204.988    -280.576
  H      -65.235     205.118    -281.823
  H      -65.004     204.015    -280.487

 3  4  5  6  7  8  9  10  11  12  22  25  29  30  31  32 0
 6-311+G(2d,p)
 ****
 33  36  37 0
 6-311+G(2d,p)
 ****
 1  2  13  14  15  16  17  18  19  20  21  23  24  26 0
 3-21G
 ****
 27  28  34  35  38  39  40  41  42  43  44  45  46  47  48 0
 3-21G
 ****


