%nproc=1
%NoSave
%Mem=1900MB
#P OB98/GEN NMR

erre ene a

0 1
  C       42.150     126.980     -42.379
  O       42.578     125.767     -42.971
  H       42.512     127.016     -41.348
  H       41.053     127.029     -42.366
  H       42.557     127.832     -42.930
  P       42.113     125.501     -44.485
  C       42.838     123.805     -46.305
  O       43.045     124.293     -44.984
  C       44.032     122.961     -46.755
  O       45.207     123.783     -46.874
  C       44.396     121.823     -45.801
  O       43.578     120.691     -46.038
  C       45.840     121.567     -46.201
  O       45.871     120.739     -47.382
  C       46.364     122.977     -46.532
  N       50.639     122.966     -43.682
  C       50.137     122.052     -44.550
  N       48.968     122.099     -45.227
  C       48.294     123.228     -44.956
  C       48.685     124.243     -44.087
  C       49.922     124.088     -43.434
  N       50.432     125.018     -42.553
  N       47.740     125.253     -44.053
  C       46.823     124.876     -44.927
  N       47.093     123.642     -45.469
  O       42.061     126.703     -45.365
  O       40.703     124.775     -44.246
  H       45.359     119.932     -47.181
  H       40.764     124.148     -43.503
  H       50.748     121.174     -44.713
  H       45.959     125.464     -45.217
  H       47.027     122.966     -47.411
  H       46.405     121.034     -45.430
  H       44.365     122.150     -44.753
  H       43.805     122.567     -47.758
  H       42.695     124.642     -46.999
  H       51.219     124.733     -41.994
  H       49.835     125.781     -42.279
  H       41.927     123.200     -46.295
  P       43.747     119.350     -45.169
  C       42.089     117.387     -44.997
  O       42.252     118.803     -44.963
  O       44.554     119.516     -43.927
  O       44.377     118.293     -46.190
  H       44.759     117.541     -45.693
  H       41.058     117.143     -44.849
  H       42.676     116.942     -44.221
  H       42.411     117.014     -45.946

 6  7  8  9  10  11  12  13  14  15  25  28  32  33  34  35 0
 6-311+G(2d,p)
 ****
 36  39  40 0
 6-311+G(2d,p)
 ****
 1  2  3  4  5  16  17  18  19  20  21  22  23  24 0
 3-21G
 ****
 26  27  29  30  31  37  38  41  42  43  44  45  46  47 0
 3-21G
 ****
 48 0
 3-21G
 ****


