%nproc=1
%NoSave
%Mem=1900MB
#P OB98/GEN NMR

erre ene a

0 1
  C     -179.563     753.548    -228.500
  O     -180.771     754.274    -228.411
  H     -179.771     752.492    -228.301
  H     -178.849     753.912    -227.760
  H     -179.140     753.640    -229.505
  P     -180.687     755.856    -228.669
  C     -183.163     756.402    -229.221
  O     -182.122     756.456    -228.254
  C     -183.985     755.126    -229.049
  O     -184.604     755.138    -227.735
  C     -185.105     754.967    -230.092
  O     -185.210     753.581    -230.441
  C     -186.350     755.379    -229.322
  O     -187.535     754.827    -229.887
  C     -186.007     754.854    -227.930
  N     -189.957     754.111    -224.902
  C     -189.345     753.259    -225.802
  N     -189.870     752.019    -225.927
  N     -188.315     753.597    -226.530
  C     -187.878     754.859    -226.290
  C     -188.398     755.799    -225.429
  C     -189.556     755.419    -224.647
  O     -190.154     756.130    -223.849
  N     -187.691     756.976    -225.501
  C     -186.747     756.742    -226.394
  N     -186.818     755.477    -226.899
  O     -180.686     755.974    -230.266
  O     -179.517     756.547    -228.053
  H     -187.649     755.215    -230.779
  H     -180.189     756.761    -230.555
  H     -190.755     753.799    -224.378
  H     -185.999     757.458    -226.712
  H     -186.154     753.771    -227.843
  H     -186.444     756.469    -229.317
  H     -190.644     751.681    -225.378
  H     -184.953     755.565    -230.992
  H     -189.429     751.379    -226.576
  H     -183.304     754.266    -229.068
  H     -182.721     756.421    -230.221
  H     -183.807     757.278    -229.101
  P     -184.698     753.144    -231.896
  C     -184.226     750.618    -231.524
  O     -185.063     751.597    -232.128
  O     -183.104     753.130    -231.719
  O     -185.113     754.073    -232.990
  H     -182.716     753.883    -232.194
  H     -184.590     749.641    -231.764
  H     -184.232     750.750    -230.462
  H     -183.227     750.727    -231.891

 6  7  8  9  10  11  12  13  14  15  26  29  33  34 0
 6-311+G(2d,p)
 ****
 36  38  39  40  41 0
 6-311+G(2d,p)
 ****
 1  2  3  4  5  16  17  18  19  20  21  22  23  24  25 0
 3-21G
 ****
 27  28  30  31  32  35  37  42  43  44  45  46  47 0
 3-21G
 ****
 48  49 0
 3-21G
 ****


