%nproc=1
%NoSave
%Mem=1900MB
#P OB98/GEN NMR

erre ene a

0 1
  C      726.242    -702.851    -382.323
  O      726.439    -702.505    -383.683
  H      727.142    -703.361    -381.963
  H      725.392    -703.526    -382.222
  H      726.082    -701.949    -381.728
  P      725.214    -701.779    -384.419
  C      723.931    -699.665    -383.692
  O      725.202    -700.296    -383.807
  C      724.008    -698.220    -384.178
  O      725.134    -697.562    -383.552
  C      724.185    -698.107    -385.700
  O      723.433    -696.998    -386.191
  C      725.671    -697.808    -385.858
  O      725.961    -697.121    -387.065
  C      725.960    -697.012    -384.589
  N      730.539    -694.802    -385.132
  C      729.291    -694.429    -385.513
  N      728.129    -695.062    -385.304
  C      728.313    -696.194    -384.605
  C      729.520    -696.715    -384.153
  C      730.677    -695.961    -384.452
  N      731.949    -696.361    -384.094
  N      729.309    -697.912    -383.495
  C      728.012    -698.107    -383.542
  N      727.367    -697.099    -384.207
  O      723.909    -702.504    -384.377
  O      725.810    -701.544    -385.893
  H      726.938    -697.036    -387.158
  H      726.724    -701.219    -385.848
  H      729.233    -693.482    -386.048
  H      727.490    -698.957    -383.126
  H      725.729    -695.948    -384.706
  H      726.236    -698.749    -385.861
  H      723.899    -699.019    -386.228
  H      723.106    -697.685    -383.858
  H      723.610    -699.664    -382.642
  H      732.723    -695.765    -384.327
  H      732.076    -697.213    -383.550
  H      723.211    -700.237    -384.274
  P      722.197    -697.296    -387.180
  C      720.010    -698.663    -387.141
  O      721.106    -698.156    -386.379
  O      722.551    -697.807    -388.531
  O      721.493    -695.866    -387.273
  H      721.165    -695.735    -388.182
  H      719.355    -699.216    -386.500
  H      720.379    -699.305    -387.913
  H      719.474    -697.848    -387.581

 6  7  8  9  10  11  12  13  14  15  25  28  32  33  34  35 0
 6-311+G(2d,p)
 ****
 36  39  40 0
 6-311+G(2d,p)
 ****
 1  2  3  4  5  16  17  18  19  20  21  22  23  24 0
 3-21G
 ****
 26  27  29  30  31  37  38  41  42  43  44  45  46  47 0
 3-21G
 ****
 48 0
 3-21G
 ****


