%nproc=1
%NoSave
%Mem=1900MB
#P OB98/GEN NMR

erre ene a

0 1
  C       78.214     -64.921     191.672
  O       79.505     -64.715     191.134
  H       78.119     -64.330     192.587
  H       78.068     -65.978     191.917
  H       77.454     -64.594     190.959
  P       79.864     -65.528     189.799
  C       79.897     -63.343     188.431
  O       79.284     -64.615     188.610
  C       81.061     -63.442     187.444
  O       80.522     -63.686     186.119
  C       81.912     -62.172     187.374
  O       83.284     -62.533     187.220
  C       81.422     -61.483     186.112
  O       82.408     -60.625     185.544
  C       81.042     -62.676     185.236
  N       79.885     -62.870     180.269
  C       80.880     -63.430     180.988
  N       81.107     -63.341     182.316
  C       80.141     -62.620     182.915
  C       79.066     -61.984     182.314
  C       78.954     -62.126     180.918
  N       77.957     -61.539     180.178
  N       78.320     -61.303     183.259
  C       78.925     -61.534     184.408
  N       80.041     -62.309     184.247
  O       79.432     -66.957     189.775
  O       81.441     -65.284     189.681
  H       83.258     -61.110     185.513
  H       81.673     -64.354     189.862
  H       81.596     -64.022     180.421
  H       78.609     -61.154     185.373
  H       81.899     -63.092     184.694
  H       80.538     -60.876     186.343
  H       81.793     -61.539     188.256
  H       81.669     -64.316     187.705
  H       80.263     -62.962     189.392
  H       77.943     -61.705     179.182
  H       77.247     -60.996     180.647
  H       79.137     -62.653     188.052
  P       84.112     -62.964     188.524
  C       83.976     -65.537     188.364
  O       83.537     -64.369     189.050
  O       84.287     -61.910     189.568
  O       85.532     -63.391     187.908
  H       86.239     -63.112     188.519
  H       83.525     -66.401     188.806
  H       85.041     -65.614     188.436
  H       83.692     -65.474     187.334

 6  7  8  9  10  11  12  13  14  15  25  28  32  33  34  35 0
 6-311+G(2d,p)
 ****
 36  39  40 0
 6-311+G(2d,p)
 ****
 1  2  3  4  5  16  17  18  19  20  21  22  23  24 0
 3-21G
 ****
 26  27  29  30  31  37  38  41  42  43  44  45  46  47 0
 3-21G
 ****
 48 0
 3-21G
 ****


