%nproc=1
%NoSave
%Mem=1900MB
#P OB98/GEN NMR

erre ene a

0 1
  C     -260.639     349.177    -384.073
  O     -259.700     349.712    -384.987
  H     -261.274     348.461    -384.604
  H     -261.272     349.973    -383.667
  H     -260.123     348.658    -383.262
  P     -258.690     350.821    -384.412
  C     -256.483     351.759    -385.357
  O     -257.755     351.194    -385.666
  C     -255.791     352.238    -386.638
  O     -255.276     351.076    -387.344
  C     -256.722     352.988    -387.598
  O     -256.005     354.063    -388.205
  C     -257.072     351.945    -388.648
  O     -257.433     352.530    -389.896
  C     -255.796     351.107    -388.689
  N     -255.968     348.141    -392.839
  C     -255.551     349.416    -392.656
  N     -255.524     350.125    -391.501
  C     -255.944     349.371    -390.472
  C     -256.404     348.066    -390.506
  C     -256.417     347.439    -391.767
  N     -256.857     346.159    -391.974
  N     -256.785     347.650    -389.244
  C     -256.554     348.688    -388.454
  N     -256.058     349.757    -389.159
  O     -257.967     350.446    -383.161
  O     -259.644     352.097    -384.296
  H     -257.600     351.806    -390.534
  H     -260.209     352.195    -385.087
  H     -255.201     349.932    -393.546
  H     -256.738     348.716    -387.387
  H     -255.024     351.540    -389.348
  H     -257.919     351.336    -388.300
  H     -257.614     353.372    -387.094
  H     -254.926     352.850    -386.359
  H     -255.852     351.019    -384.852
  H     -256.820     345.778    -392.907
  H     -257.178     345.607    -391.178
  H     -256.648     352.605    -384.680
  P     -256.535     355.561    -387.984
  C     -255.420     357.827    -387.429
  O     -255.288     356.568    -388.087
  O     -257.435     355.768    -386.812
  O     -257.315     355.850    -389.355
  H     -258.114     356.386    -389.163
  H     -254.528     358.400    -387.573
  H     -255.577     357.668    -386.383
  H     -256.254     358.358    -387.838

 6  7  8  9  10  11  12  13  14  15  25  28  32  33  34  35 0
 6-311+G(2d,p)
 ****
 36  39  40 0
 6-311+G(2d,p)
 ****
 1  2  3  4  5  16  17  18  19  20  21  22  23  24 0
 3-21G
 ****
 26  27  29  30  31  37  38  41  42  43  44  45  46  47 0
 3-21G
 ****
 48 0
 3-21G
 ****


