%nproc=1
%NoSave
%Mem=1900MB
#P OB98/GEN NMR

erre ene a

0 1
  C       -4.524      65.553     340.542
  O       -3.902      65.538     341.812
  H       -5.490      66.054     340.630
  H       -4.686      64.531     340.185
  H       -3.903      66.103     339.829
  P       -2.487      64.792     341.914
  C       -3.369      62.470     341.221
  O       -2.586      63.597     340.842
  C       -2.546      61.188     341.106
  O       -3.335      60.087     341.631
  C       -2.159      60.833     339.665
  O       -0.859      60.241     339.661
  C       -3.189      59.784     339.280
  O       -2.737      58.948     338.215
  C       -3.395      59.069     340.615
  N       -5.567      54.462     340.627
  C       -4.281      54.856     340.754
  N       -3.789      56.112     340.761
  C       -4.792      57.015     340.682
  C       -6.144      56.764     340.547
  C       -6.529      55.410     340.512
  N       -7.830      54.996     340.348
  N       -6.844      57.950     340.449
  C       -5.931      58.901     340.531
  N       -4.671      58.378     340.651
  O       -2.069      64.382     343.286
  O       -1.513      65.829     341.180
  H       -2.109      58.292     338.581
  H       -1.898      66.151     340.342
  H       -3.549      54.057     340.851
  H       -6.128      59.966     340.490
  H       -2.614      58.322     340.820
  H       -4.114      60.270     338.953
  H       -2.179      61.692     338.994
  H       -1.661      61.275     341.747
  H       -4.255      62.397     340.582
  H       -8.015      54.006     340.335
  H       -8.562      55.688     340.265
  H       -3.699      62.623     342.257
  P        0.384      61.093     339.108
  C        0.509      59.982     336.782
  O        0.269      61.181     337.505
  O        1.724      60.691     339.622
  O        0.018      62.588     339.559
  H        0.827      63.029     339.887
  H        0.403      60.170     335.734
  H       -0.197      59.236     337.084
  H        1.501      59.636     336.984

 6  7  8  9  10  11  12  13  14  15  25  28  32  33  34  35 0
 6-311+G(2d,p)
 ****
 36  39  40 0
 6-311+G(2d,p)
 ****
 1  2  3  4  5  16  17  18  19  20  21  22  23  24 0
 3-21G
 ****
 26  27  29  30  31  37  38  41  42  43  44  45  46  47 0
 3-21G
 ****
 48 0
 3-21G
 ****


