%nproc=1
%NoSave
%Mem=1900MB
#P OB98/GEN NMR

erre ene a

0 1
  C      -41.483     659.107     532.612
  O      -40.685     660.270     532.622
  P      -39.795     660.753     531.390
  C      -37.701     659.903     532.730
  O      -38.271     660.905     531.889
  C      -36.623     660.506     533.648
  O      -36.206     659.486     534.592
  C      -35.375     660.927     532.843
  O      -34.807     662.158     533.241
  C      -34.488     659.683     532.927
  O      -33.120     659.940     532.661
  C      -34.812     659.162     534.331
  N      -31.518     655.285     534.232
  C      -31.265     656.647     534.202
  N      -29.992     657.009     533.933
  N      -32.188     657.566     534.389
  C      -33.432     657.048     534.529
  C      -33.806     655.727     534.589
  C      -32.770     654.725     534.405
  O      -32.977     653.517     534.326
  N      -35.182     655.588     534.678
  C      -35.621     656.815     534.655
  N      -34.615     657.748     534.539
  O      -40.361     661.825     530.526
  O      -39.714     659.402     530.503
  H      -33.025     660.035     531.698
  H      -39.691     659.678     529.553
  H      -30.788     654.633     534.006
  H      -36.684     657.098     534.696
  H      -34.214     659.670     535.092
  H      -34.829     658.971     532.160
  H      -29.305     656.333     533.638
  H      -35.640     661.096     531.790
  H      -29.830     657.978     533.660
  H      -37.047     661.342     534.209
  H      -37.272     659.157     532.066
  H      -38.485     659.418     533.324
  P      -34.420     663.419     532.348
  C      -32.011     662.786     531.721
  O      -32.846     663.668     532.451
  O      -35.040     664.690     533.116
  O      -34.953     663.380     530.937
  H      -35.412     665.314     532.478
  H      -30.993     662.877     532.097
  H      -32.034     663.056     530.666
  H      -32.345     661.744     531.843
  H      -41.979     659.006     533.555
  H      -40.864     658.251     532.441
  H      -42.212     659.181     531.832

 3  4  5  6  7  8  9  10  11  12  23  26  30  31 0
 6-311+G(2d,p)
 ****
 33  35  36  37  38 0
 6-311+G(2d,p)
 ****
 1  2  13  14  15  16  17  18  19  20  21  22  24  25 0
 3-21G
 ****
 27  28  29  32  34  39  40  41  42  43  44  45  46  47  48  49 0
 3-21G
 ****


