%nproc=1
%NoSave
%Mem=1900MB
#P OB98/GEN NMR

erre ene a

0 1
  C      -74.803     -67.396      16.394
  O      -74.273     -67.548      17.700
  P      -73.867     -66.230      18.519
  C      -71.355     -66.586      17.831
  O      -72.474     -65.722      17.904
  C      -70.246     -65.949      16.988
  O      -70.813     -65.500      15.725
  C      -69.565     -64.740      17.642
  O      -68.184     -64.769      17.254
  C      -70.275     -63.563      16.995
  O      -69.518     -62.364      17.056
  C      -70.489     -64.102      15.576
  N      -71.546     -63.406      14.841
  C      -71.348     -62.063      14.534
  O      -70.348     -61.425      14.861
  N      -72.368     -61.453      13.847
  C      -73.561     -62.021      13.507
  O      -74.448     -61.422      12.909
  C      -73.734     -63.426      13.902
  C      -72.732     -64.045      14.530
  O      -73.462     -66.859      19.933
  O      -74.942     -65.199      18.571
  H      -73.027     -67.726      19.855
  H      -69.362     -62.152      17.995
  H      -72.230     -60.489      13.580
  H      -74.675     -63.907      13.662
  H      -72.835     -65.082      14.831
  H      -69.551     -64.048      15.010
  H      -71.230     -63.388      17.505
  H      -69.646     -64.752      18.732
  H      -69.505     -66.725      16.753
  H      -71.654     -67.532      17.371
  H      -70.999     -66.804      18.845
  P      -67.071     -64.501      18.387
  C      -66.243     -62.167      17.534
  O      -66.906     -62.914      18.530
  O      -65.745     -64.926      17.588
  O      -67.260     -65.275      19.650
  H      -65.694     -64.529      16.704
  H      -66.524     -61.114      17.638
  H      -66.517     -62.504      16.532
  H      -65.160     -62.256      17.669
  H      -75.022     -68.360      15.984
  H      -74.087     -66.899      15.774
  H      -75.700     -66.815      16.439

 3  4  5  6  7  8  9  10  11  12  13  24  28  29  30  31  32 0
 6-311+G(2d,p)
 ****
 33  34 0
 6-311+G(2d,p)
 ****
 1  2  14  15  16  17  18  19  20  21  22  23  25  26  27 0
 3-21G
 ****
 35  36  37  38  39  40  41  42  43  44  45 0
 3-21G
 ****


