%nproc=1
%NoSave
%Mem=1900MB
#P OB98/GEN NMR

erre ene a

0 1
  C     -891.930    -593.501     -61.189
  O     -892.810    -594.622     -61.355
  P     -892.780    -595.785     -60.245
  C     -895.190    -595.629     -59.233
  O     -893.810    -595.334     -59.090
  C     -895.700    -596.381     -57.974
  O     -895.640    -595.489     -56.851
  C     -897.140    -596.831     -58.081
  O     -897.270    -598.007     -58.862
  C     -897.530    -597.010     -56.632
  O     -897.110    -598.281     -56.138
  C     -896.720    -595.876     -55.938
  N     -897.550    -594.730     -55.564
  C     -898.160    -594.795     -54.333
  O     -898.050    -595.750     -53.581
  N     -898.950    -593.724     -53.995
  C     -899.230    -592.638     -54.797
  O     -900.000    -591.748     -54.451
  C     -898.580    -592.633     -56.121
  C     -897.790    -593.671     -56.453
  O     -891.350    -595.607     -59.543
  O     -892.980    -597.149     -60.774
  H     -897.610    -598.953     -56.667
  H     -891.000    -596.479     -59.286
  H     -899.390    -593.736     -53.087
  H     -898.770    -591.803     -56.772
  H     -897.290    -593.705     -57.408
  H     -896.240    -596.270     -55.041
  H     -898.610    -596.940     -56.457
  H     -897.760    -596.002     -58.523
  H     -895.040    -597.234     -57.812
  H     -895.330    -596.273     -60.101
  H     -895.760    -594.725     -59.406
  P     -898.720    -598.343     -59.477
  C     -898.030    -597.548     -61.878
  O     -898.850    -597.360     -60.766
  O     -899.670    -597.695     -58.354
  O     -898.940    -599.802     -59.721
  H     -899.270    -596.901     -57.955
  H     -897.810    -598.616     -62.052
  H     -897.060    -597.020     -61.715
  H     -898.550    -597.150     -62.750
  H     -892.065    -592.818     -62.001
  H     -890.916    -593.842     -61.175
  H     -892.152    -593.007     -60.266

 3  4  5  6  7  8  9  10  11  12  13  23  28  29  30  31  32 0
 6-311+G(2d,p)
 ****
 33  34 0
 6-311+G(2d,p)
 ****
 1  2  14  15  16  17  18  19  20  21  22  24  25  26 0
 3-21G
 ****
 27  35  36  37  38  39  40  41  42  43  44  45 0
 3-21G
 ****


