%nproc=1
%NoSave
%Mem=1900MB
#P OB98/GEN NMR

erre ene a

0 1
  C      386.527     223.635      21.999
  O      386.096     222.345      22.385
  H      387.412     223.534      21.366
  H      386.790     224.243      22.872
  H      385.743     224.136      21.419
  P      384.979     222.233      23.536
  C      386.671     220.984      25.033
  O      385.803     222.103      24.918
  C      386.065     219.901      25.925
  O      386.861     218.691      25.883
  C      386.008     220.275      27.405
  O      385.135     221.335      27.718
  C      385.809     218.920      28.066
  O      384.444     218.503      28.064
  C      386.642     217.994      27.127
  N      387.903     217.599      27.739
  C      388.158     216.216      27.771
  O      387.377     215.379      27.346
  N      389.344     215.843      28.333
  C      390.262     216.681      28.917
  O      391.296     216.282      29.428
  C      389.927     218.115      28.888
  C      388.782     218.493      28.304
  O      383.946     221.162      23.346
  O      384.370     223.714      23.614
  H      384.152     218.489      27.140
  H      383.507     223.716      24.112
  H      389.550     214.854      28.356
  H      390.615     218.805      29.337
  H      388.510     219.552      28.262
  H      386.072     217.089      26.894
  H      386.153     218.913      29.102
  H      387.013     220.619      27.709
  H      385.070     219.662      25.542
  H      387.612     221.332      25.468
  H      386.876     220.579      24.039
  P      385.409     222.418      28.865
  C      383.449     221.534      30.366
  O      384.837     221.839      30.257
  O      385.124     223.839      28.516
  O      387.004     222.273      29.066
  H      387.340     223.153      29.297
  H      383.241     221.163      31.348
  H      383.189     220.790      29.642
  H      382.874     222.419      30.190

 6  7  8  9  10  11  12  13  14  15  16  26  31  32  33  34  35 0
 6-311+G(2d,p)
 ****
 36  37 0
 6-311+G(2d,p)
 ****
 1  2  3  4  5  17  18  19  20  21  22  23  24  25 0
 3-21G
 ****
 27  28  29  30  38  39  40  41  42  43  44  45 0
 3-21G
 ****


