%nproc=1
%NoSave
%Mem=1900MB
#P OB98/GEN NMR

erre ene a

0 1
  C      -39.723      68.908      84.314
  O      -40.989      69.370      84.746
  H      -39.004      69.053      85.125
  H      -39.394      69.485      83.445
  H      -39.768      67.844      84.064
  P      -42.231      69.085      83.767
  C      -43.359      71.453      83.632
  O      -43.360      70.148      84.181
  C      -43.979      72.452      84.612
  O      -43.042      72.683      85.697
  C      -44.311      73.808      83.985
  O      -45.503      74.308      84.590
  C      -43.136      74.683      84.397
  O      -43.464      76.067      84.378
  C      -42.805      74.103      85.784
  N      -41.434      74.397      86.197
  C      -41.241      74.740      87.541
  O      -42.204      74.799      88.308
  N      -39.978      75.052      87.971
  C      -39.000      75.082      87.124
  N      -37.773      75.421      87.609
  C      -39.162      74.771      85.689
  C      -40.390      74.430      85.301
  O      -42.788      67.698      84.340
  O      -41.882      69.059      82.317
  H      -43.606      76.341      83.445
  H      -42.841      67.672      85.309
  H      -38.315      74.821      85.019
  H      -40.599      74.177      84.268
  H      -43.489      74.511      86.541
  H      -42.294      74.526      83.711
  H      -44.440      73.754      82.902
  H      -44.872      71.995      85.057
  H      -37.711      75.648      88.596
  H      -43.922      71.473      82.694
  H      -36.951      75.531      87.032
  H      -42.322      71.731      83.414
  P      -46.469      75.275      83.751
  C      -46.021      77.634      84.716
  O      -46.904      76.517      84.668
  O      -47.584      74.603      83.023
  O      -45.456      75.960      82.706
  H      -45.910      76.010      81.842
  H      -46.430      78.385      85.359
  H      -45.900      78.035      83.732
  H      -45.070      77.321      85.093

 6  7  8  9  10  11  12  13  14  15  16  26  30  31  32  33  35 0
 6-311+G(2d,p)
 ****
 37  38 0
 6-311+G(2d,p)
 ****
 1  2  3  4  5  17  18  19  20  21  22  23  24  25 0
 3-21G
 ****
 27  28  29  34  36  39  40  41  42  43  44  45  46 0
 3-21G
 ****


