%nproc=1
%NoSave
%Mem=1900MB
#P OB98/GEN NMR

erre ene a

0 1
  C      211.312       9.087     169.865
  O      210.845       8.881     168.546
  H      212.358       8.773     169.920
  H      210.724       8.487     170.566
  H      211.244      10.145     170.132
  P      209.383       9.434     168.197
  C      206.991       9.173     169.254
  O      208.367       8.811     169.276
  C      206.136       7.999     169.724
  O      206.261       6.873     168.833
  C      206.546       7.441     171.076
  O      206.222       8.303     172.145
  C      205.768       6.131     171.082
  O      204.390       6.349     171.413
  C      205.913       5.688     169.604
  N      206.894       4.625     169.433
  C      206.430       3.324     169.668
  O      205.254       3.133     169.983
  N      207.315       2.280     169.565
  C      208.549       2.508     169.233
  N      209.377       1.432     169.158
  C      209.072       3.860     168.952
  C      208.203       4.860     169.076
  O      209.015       8.636     166.862
  O      209.275      10.921     168.079
  H      204.020       5.471     171.635
  H      209.104       7.671     166.947
  H      210.106       4.004     168.671
  H      208.504       5.883     168.889
  H      204.950       5.330     169.214
  H      206.164       5.422     171.811
  H      207.615       7.197     171.077
  H      205.085       8.323     169.722
  H      208.988       0.524     169.377
  H      206.689       9.497     168.253
  H      210.364       1.493     168.942
  H      206.863      10.026     169.929
  P      207.308       8.645     173.274
  C      208.356       7.288     175.198
  O      207.216       7.464     174.360
  O      207.217      10.022     173.847
  O      208.703       8.332     172.550
  H      208.809       7.413     172.248
  H      208.179       6.479     175.875
  H      208.533       8.186     175.753
  H      209.212       7.067     174.595

 6  7  8  9  10  11  12  13  14  15  16  26  30  31  32  33  35 0
 6-311+G(2d,p)
 ****
 37  38 0
 6-311+G(2d,p)
 ****
 1  2  3  4  5  17  18  19  20  21  22  23  24  25 0
 3-21G
 ****
 27  28  29  34  36  39  40  41  42  43  44  45  46 0
 3-21G
 ****


