%nproc=1
%NoSave
%Mem=1900MB
#P OB98/GEN NMR

erre ene a

0 1
  C      134.998      36.047    -169.470
  O      135.424      36.483    -168.196
  H      135.192      36.842    -170.198
  H      133.925      35.836    -169.461
  H      135.551      35.154    -169.767
  P      135.135      35.501    -166.960
  C      133.009      36.925    -166.484
  O      133.571      35.623    -166.627
  C      131.930      36.900    -165.409
  O      131.013      35.806    -165.657
  C      132.461      36.667    -163.997
  O      133.010      37.840    -163.419
  C      131.198      36.211    -163.288
  O      130.408      37.319    -162.839
  C      130.468      35.408    -164.381
  N      130.577      33.966    -164.165
  C      129.367      33.288    -164.029
  O      128.269      33.837    -164.089
  N      129.467      31.944    -163.783
  C      130.623      31.245    -163.613
  O      130.642      30.051    -163.338
  C      131.872      32.020    -163.746
  C      131.791      33.329    -164.011
  O      135.846      36.243    -165.732
  O      135.632      34.106    -167.134
  H      136.663      35.769    -165.492
  H      130.276      37.891    -163.619
  H      128.602      31.432    -163.686
  H      132.807      31.493    -163.617
  H      132.691      33.923    -164.106
  H      129.402      35.672    -164.399
  H      131.440      35.611    -162.412
  H      133.189      35.847    -163.999
  H      131.366      37.842    -165.455
  H      132.559      37.237    -167.433
  H      133.805      37.629    -166.227
  P      134.460      37.725    -162.735
  C      133.233      37.165    -160.476
  O      134.250      36.844    -161.414
  O      134.652      39.224    -162.202
  O      135.516      37.243    -163.677
  H      133.799      39.659    -162.025
  H      133.257      36.462    -159.670
  H      132.278      37.124    -160.957
  H      133.398      38.151    -160.094

 6  7  8  9  10  11  12  13  14  15  16  27  31  32  33  34  35 0
 6-311+G(2d,p)
 ****
 36  37 0
 6-311+G(2d,p)
 ****
 1  2  3  4  5  17  18  19  20  21  22  23  24  25 0
 3-21G
 ****
 26  28  29  30  38  39  40  41  42  43  44  45 0
 3-21G
 ****


