%nproc=1
%NoSave
%Mem=1900MB
#P OB98/GEN NMR

erre ene a

0 1
  C     -317.254     -10.898    -289.171
  O     -317.383     -12.280    -288.907
  H     -318.253     -10.447    -289.160
  H     -316.805     -10.728    -290.151
  H     -316.653     -10.420    -288.393
  P     -316.066     -13.194    -288.980
  C     -316.756     -13.995    -291.350
  O     -315.773     -13.341    -290.556
  C     -316.082     -14.797    -292.463
  O     -315.259     -13.949    -293.290
  C     -315.142     -15.904    -291.980
  O     -315.819     -17.037    -291.462
  C     -314.408     -16.203    -293.276
  O     -315.254     -16.981    -294.142
  C     -314.197     -14.782    -293.848
  N     -312.888     -14.221    -293.515
  C     -311.772     -14.911    -294.006
  O     -311.912     -15.932    -294.676
  N     -310.512     -14.446    -293.692
  C     -310.383     -13.399    -292.937
  N     -309.115     -13.014    -292.613
  C     -311.531     -12.634    -292.408
  C     -312.739     -13.092    -292.732
  O     -316.107     -14.480    -288.217
  O     -314.878     -12.220    -288.523
  H     -316.086     -16.484    -294.251
  H     -314.041     -12.743    -288.540
  H     -311.363     -11.771    -291.781
  H     -313.631     -12.595    -292.370
  H     -314.323     -14.770    -294.934
  H     -313.484     -16.774    -293.129
  H     -314.422     -15.511    -291.253
  H     -316.878     -15.200    -293.110
  H     -308.357     -13.588    -292.959
  H     -317.422     -13.235    -291.762
  H     -308.936     -12.396    -291.830
  H     -317.340     -14.683    -290.732
  P     -315.260     -17.690    -290.104
  C     -314.450     -19.865    -291.281
  O     -314.102     -18.715    -290.531
  O     -316.466     -18.644    -289.645
  O     -314.858     -16.718    -289.035
  H     -317.054     -18.184    -289.015
  H     -313.570     -20.439    -291.482
  H     -314.900     -19.566    -292.205
  H     -315.143     -20.459    -290.723

 6  7  8  9  10  11  12  13  14  15  16  26  30  31  32  33  35 0
 6-311+G(2d,p)
 ****
 37  38 0
 6-311+G(2d,p)
 ****
 1  2  3  4  5  17  18  19  20  21  22  23  24  25 0
 3-21G
 ****
 27  28  29  34  36  39  40  41  42  43  44  45  46 0
 3-21G
 ****


