%nproc=1
%NoSave
%Mem=1900MB
#P OB98/GEN NMR

erre ene a

0 1
  C      173.113     577.395     -83.066
  O      171.942     578.118     -82.733
  H      172.952     576.886     -84.017
  H      173.323     576.645     -82.294
  H      173.964     578.074     -83.168
  P      171.981     578.961     -81.368
  C      170.025     577.589     -80.340
  O      171.381     578.005     -80.229
  C      169.753     576.453     -79.356
  O      170.583     575.313     -79.688
  C      170.091     576.794     -77.911
  O      169.091     577.583     -77.293
  C      170.228     575.403     -77.306
  O      168.949     574.864     -76.946
  C      170.838     574.596     -78.457
  N      174.509     571.071     -78.070
  C      173.188     570.971     -78.326
  N      172.276     571.963     -78.425
  C      172.863     573.160     -78.262
  C      174.198     573.417     -78.002
  C      175.045     572.303     -77.908
  N      176.390     572.399     -77.625
  N      174.412     574.774     -77.853
  C      173.227     575.330     -78.031
  N      172.263     574.393     -78.285
  O      170.835     580.057     -81.589
  O      173.297     579.588     -81.048
  H      168.567     575.476     -76.288
  H      171.242     580.904     -81.852
  H      172.804     569.964     -78.458
  H      173.022     576.390     -77.983
  H      170.378     573.607     -78.555
  H      170.844     575.429     -76.409
  H      171.067     577.298     -77.859
  H      168.702     576.151     -79.450
  H      169.833     577.238     -81.358
  H      169.373     578.443     -80.128
  H      176.923     571.557     -77.505
  H      176.773     573.307     -77.389
  P      169.494     578.396     -75.973
  C      168.018     577.024     -74.313
  O      169.324     577.396     -74.728
  O      168.293     579.435     -75.785
  O      170.817     579.074     -76.045
  H      168.641     580.281     -75.425
  H      168.085     576.359     -73.478
  H      167.513     576.534     -75.119
  H      167.471     577.899     -74.029

 6  7  8  9  10  11  12  13  14  15  25  28  32  33  34  35 0
 6-311+G(2d,p)
 ****
 36  37  40 0
 6-311+G(2d,p)
 ****
 1  2  3  4  5  16  17  18  19  20  21  22  23  24 0
 3-21G
 ****
 26  27  29  30  31  38  39 41  42  43  44  45  46  47  48 0
 3-21G
 ****


