%nproc=1
%NoSave
%Mem=1900MB
#P OB98/GEN NMR

erre ene a

0 1
  C      -31.043      48.347      25.119
  O      -31.179      49.720      24.804
  H      -30.489      47.857      24.313
  H      -32.025      47.875      25.205
  H      -30.488      48.222      26.052
  P      -31.965      50.660      25.837
  C      -34.413      50.864      26.634
  O      -33.505      50.220      25.750
  C      -35.607      51.405      25.855
  O      -35.222      52.561      25.085
  C      -36.208      50.405      24.867
  O      -37.068      49.500      25.541
  C      -36.945      51.350      23.933
  O      -38.166      51.796      24.557
  C      -35.947      52.517      23.823
  N      -35.290      52.588      18.796
  C      -36.450      52.696      19.542
  N      -37.602      52.794      18.843
  N      -36.477      52.688      20.849
  C      -35.257      52.512      21.407
  C      -34.042      52.377      20.776
  C      -34.016      52.445      19.329
  O      -33.009      52.370      18.630
  N      -33.029      52.152      21.673
  C      -33.626      52.188      22.849
  N      -34.983      52.390      22.742
  O      -31.749      52.137      25.689
  O      -31.509      50.127      27.274
  H      -38.535      52.490      23.980
  H      -30.739      50.623      27.607
  H      -35.337      52.583      17.790
  H      -33.127      52.077      23.804
  H      -36.448      53.483      23.698
  H      -37.214      50.891      22.982
  H      -37.661      52.522      17.869
  H      -35.433      49.883      24.294
  H      -38.465      52.823      19.370
  H      -36.360      51.740      26.581
  H      -33.874      51.681      27.126
  H      -34.762      50.162      27.399
  P      -37.310      48.013      24.981
  C      -38.085      47.248      22.636
  O      -38.225      48.205      23.679
  O      -37.844      47.045      25.982
  O      -35.904      47.586      24.355
  H      -35.294      47.159      25.007
  H      -38.749      47.495      21.834
  H      -38.324      46.275      23.011
  H      -37.076      47.255      22.279

 6  7  8  9  10  11  12  13  14  15  26  29  33  34 0
 6-311+G(2d,p)
 ****
 36  38  39  40  41 0
 6-311+G(2d,p)
 ****
 1  2  3  4  5  16  17  18  19  20  21  22  23  24  25 0
 3-21G
 ****
 27  28  30  31  32  35  37  42  43  44  45  46  47 0
 3-21G
 ****
 48  49 0
 3-21G
 ****


