%nproc=1
%NoSave
%Mem=1900MB
#P OB98/GEN NMR

erre ene a

0 1
  C      -25.436      28.347    -631.007
  O      -24.613      28.733    -632.109
  P      -23.937      30.198    -632.037
  C      -24.110      32.434    -633.295
  O      -24.589      31.116    -633.176
  C      -25.081      33.333    -634.097
  O      -25.148      32.927    -635.489
  C      -26.517      33.315    -633.535
  O      -27.076      34.621    -633.753
  C      -27.214      32.331    -634.463
  O      -28.630      32.511    -634.417
  C      -26.538      32.639    -635.805
  N      -26.672      31.564    -636.783
  C      -27.825      31.576    -637.564
  O      -28.709      32.406    -637.374
  N      -27.973      30.601    -638.527
  C      -27.067      29.681    -638.656
  N      -27.268      28.744    -639.629
  C      -25.846      29.603    -637.814
  C      -25.724      30.585    -636.906
  O      -22.438      29.936    -632.555
  O      -23.943      30.772    -630.658
  H      -28.834      33.409    -634.798
  H      -21.795      30.320    -631.931
  H      -25.123      28.818    -637.942
  H      -24.875      30.626    -636.250
  H      -26.968      33.562    -636.245
  H      -27.001      31.298    -634.152
  H      -26.575      33.054    -632.478
  H      -24.706      34.365    -634.076
  H      -28.104      28.823    -640.185
  H      -23.136      32.441    -633.817
  H      -26.640      27.986    -639.811
  H      -23.922      32.851    -632.305
  P      -27.412      35.517    -632.461
  C      -29.585      36.167    -631.247
  O      -29.018      35.414    -632.303
  O      -27.256      37.007    -633.072
  O      -26.589      35.337    -631.233
  H      -27.367      37.665    -632.351
  H      -30.682      36.093    -631.331
  H      -29.292      37.221    -631.326
  H      -29.287      35.736    -630.280
  H      -25.820      27.363    -631.176
  H      -26.249      29.036    -630.911
  H      -24.855      28.353    -630.109

 3  4  5  6  7  8  9  10  11  12  13  21  23  27  28  29  30  32 0
 6-311+G(2d,p)
 ****
 34  35 0
 6-311+G(2d,p)
 ****
 1  2  14  15  16  17  18  19  20  22  24  25  26 0
 3-21G
 ****
 31  33  36  37  38  39  40  41  42  43  44  45  46 0
 3-21G
 ****


