%nproc=1
%NoSave
%Mem=1900MB
#P OB98/GEN NMR

erre ene a

0 1
  C      113.982     -79.815    -143.395
  O      112.784     -80.179    -144.048
  H      113.851     -78.870    -142.862
  H      114.240     -80.593    -142.670
  H      114.797     -79.725    -144.119
  P      112.232     -79.170    -145.167
  C      110.271     -78.416    -143.637
  O      111.428     -78.032    -144.369
  C      109.729     -77.215    -142.871
  O      110.736     -76.702    -141.970
  C      109.326     -76.038    -143.752
  O      108.040     -76.209    -144.321
  C      109.332     -74.912    -142.732
  O      108.141     -74.981    -141.926
  C      110.566     -75.260    -141.890
  N      113.892     -71.478    -140.990
  C      112.759     -71.851    -140.358
  N      111.927     -72.868    -140.663
  C      112.364     -73.531    -141.746
  C      113.495     -73.261    -142.498
  C      114.288     -72.180    -142.076
  N      115.436     -71.785    -142.727
  N      113.597     -74.140    -143.559
  C      112.563     -74.944    -143.427
  N      111.782     -74.612    -142.352
  O      111.068     -80.002    -145.884
  O      113.247     -78.656    -146.133
  H      108.054     -74.115    -141.484
  H      110.886     -79.629    -146.766
  H      112.484     -71.254    -139.494
  H      112.337     -75.778    -144.079
  H      110.440     -75.001    -140.833
  H      109.354     -73.922    -143.190
  H      110.082     -75.831    -144.520
  H      108.881     -77.556    -142.262
  H      110.539     -79.206    -142.929
  H      115.823     -70.894    -142.458
  H      115.651     -72.208    -143.619
  H      109.518     -78.798    -144.332
  P      107.612     -75.201    -145.494
  C      105.468     -74.676    -144.119
  O      106.591     -74.162    -144.828
  O      106.675     -76.103    -146.425
  O      108.754     -74.600    -146.248
  H      106.683     -75.776    -147.345
  H      104.886     -73.864    -143.736
  H      105.807     -75.286    -143.308
  H      104.867     -75.265    -144.781

 6  7  8  9  10  11  12  13  14  15  25  28  32  33  34  35 0
 6-311+G(2d,p)
 ****
 36  39  40 0
 6-311+G(2d,p)
 ****
 1  2  3  4  5  16  17  18  19  20  21  22  23  24 0
 3-21G
 ****
 26  27  29  30  31  37  38  41  42  43  44  45  46  47 0
 3-21G
 ****
 48 0
 3-21G
 ****


