%nproc=1
%NoSave
%Mem=1900MB
#P OB98/GEN NMR

erre ene a

0 1
  C     1294.913     870.429     277.176
  O     1295.519     869.370     276.440
  P     1297.041     868.981     276.803
  C     1296.246     866.723     277.814
  O     1296.940     867.954     278.028
  C     1297.219     865.544     277.879
  O     1297.841     865.473     279.189
  C     1296.598     864.186     277.648
  O     1296.413     863.889     276.277
  C     1297.645     863.257     278.262
  O     1298.732     863.079     277.321
  C     1298.118     864.075     279.483
  N     1297.907     860.579     283.207
  C     1298.631     860.638     282.063
  N     1298.608     861.595     281.117
  C     1297.738     862.563     281.415
  C     1296.888     862.611     282.529
  C     1297.005     861.564     283.447
  N     1296.285     861.518     284.635
  N     1296.099     863.741     282.480
  C     1296.464     864.369     281.387
  N     1297.439     863.700     280.710
  O     1297.597     870.318     277.485
  O     1297.864     868.538     275.637
  H     1298.975     863.955     277.006
  H     1298.567     870.338     277.410
  H     1299.312     859.805     281.902
  H     1296.042     865.313     281.038
  H     1299.193     863.985     279.645
  H     1297.253     862.270     278.492
  H     1295.653     864.076     278.209
  H     1298.021     865.721     277.148
  H     1295.776     866.732     276.833
  H     1296.556     860.836     285.333
  H     1295.762     862.347     284.905
  H     1295.473     866.598     278.582
  P     1294.897     863.874     275.714
  C     1295.146     866.002     274.265
  O     1294.554     865.403     275.389
  O     1294.044     863.542     277.022
  O     1294.669     862.886     274.618
  H     1293.194     863.126     276.775
  H     1294.590     866.916     274.020
  H     1295.143     865.338     273.395
  H     1296.184     866.295     274.490
  H     1293.911     870.576     276.830
  H     1295.474     871.329     277.034
  H     1294.898     870.178     278.216

 3  4  5  6  7  8  9  10  11  12  22  25  29  30  31  32 0
 6-311+G(2d,p)
 ****
 33  36  37 0
 6-311+G(2d,p)
 ****
 1  2  13  14  15  16  17  18  19  20  21  23  24  26 0
 3-21G
 ****
 27  28  34  35  38  39  40  41  42  43  44  45  46  47  48 0
 3-21G
 ****


