%nproc=1
%NoSave
%Mem=1900MB
#P OB98/GEN NMR

erre ene a

0 1
  C      139.355     355.067    -544.276
  O      140.352     356.049    -544.523
  P      140.427     356.840    -545.924
  C      142.879     356.214    -546.458
  O      141.972     357.240    -546.101
  C      144.074     356.204    -545.495
  O      144.757     357.485    -545.597
  C      143.708     355.994    -544.025
  O      144.767     355.227    -543.423
  C      143.679     357.405    -543.477
  O      143.845     357.438    -542.061
  C      144.818     358.050    -544.263
  N      144.732     359.507    -544.299
  C      144.919     360.200    -543.103
  O      145.124     359.598    -542.059
  N      144.863     361.573    -543.126
  C      144.562     362.187    -544.228
  N      144.589     363.545    -544.207
  C      144.255     361.485    -545.491
  C      144.383     360.161    -545.452
  O      139.465     357.972    -546.055
  O      140.248     355.690    -547.024
  H      143.663     358.348    -541.747
  H      139.303     355.480    -547.223
  H      143.986     362.047    -546.374
  H      144.195     359.571    -546.346
  H      145.795     357.738    -543.845
  H      142.720     357.875    -543.712
  H      142.759     355.451    -543.902
  H      144.785     355.434    -545.830
  H      144.971     363.989    -543.380
  H      143.245     356.411    -547.472
  H      144.685     364.090    -545.071
  H      142.373     355.246    -546.459
  P      144.372     353.902    -542.603
  C      145.361     354.711    -540.346
  O      145.402     353.763    -541.371
  O      144.883     352.747    -543.607
  O      142.928     353.699    -542.302
  H      144.376     351.938    -543.441
  H      146.116     354.460    -539.607
  H      144.390     354.724    -539.862
  H      145.586     355.717    -540.746
  H      139.484     354.667    -543.292
  H      139.444     354.280    -544.995
  H      138.386     355.515    -544.355

 3  4  5  6  7  8  9  10  11  12  13  23  27  28  29  30  32 0
 6-311+G(2d,p)
 ****
 34  35 0
 6-311+G(2d,p)
 ****
 1  2  14  15  16  17  18  19  20  21  22  24  25  26 0
 3-21G
 ****
 31  33  36  37  38  39  40  41  42  43  44  45  46 0
 3-21G
 ****


