%nproc=1
%NoSave
%Mem=1900MB
#P OB98/GEN NMR

erre ene a

0 1
  C      -69.041     142.145    -327.618
  O      -68.625     140.827    -327.326
  H      -69.418     142.171    -328.646
  H      -68.197     142.833    -327.537
  H      -69.843     142.450    -326.941
  P      -68.051     140.553    -325.845
  C      -65.825     141.577    -326.724
  O      -66.802     141.557    -325.689
  C      -64.727     142.594    -326.400
  O      -65.280     143.931    -326.490
  C      -64.140     142.427    -324.990
  O      -62.718     142.572    -325.055
  C      -64.764     143.560    -324.195
  O      -63.950     143.953    -323.086
  C      -64.976     144.632    -325.271
  N      -66.047     145.560    -324.907
  C      -65.701     146.631    -324.075
  O      -64.541     146.752    -323.669
  N      -66.681     147.504    -323.671
  C      -67.909     147.298    -324.025
  N      -68.841     148.186    -323.578
  C      -68.333     146.156    -324.860
  C      -67.359     145.337    -325.271
  O      -67.369     139.113    -325.990
  O      -69.062     140.638    -324.748
  H      -63.032     144.081    -323.419
  H      -67.160     138.723    -325.105
  H      -69.373     146.012    -325.115
  H      -67.575     144.471    -325.888
  H      -64.052     145.210    -325.428
  H      -65.734     143.236    -323.799
  H      -64.378     141.463    -324.543
  H      -63.946     142.523    -327.167
  H      -68.515     148.952    -322.999
  H      -66.308     141.844    -327.665
  H      -69.828     148.105    -323.768
  H      -65.378     140.579    -326.814
  P      -61.875     141.208    -325.128
  C      -60.819     141.096    -322.760
  O      -61.814     140.590    -323.641
  O      -60.379     141.704    -325.398
  O      -62.363     140.255    -326.174
  H      -60.158     141.625    -326.347
  H      -60.894     140.600    -321.815
  H      -60.965     142.147    -322.624
  H      -59.850     140.922    -323.179

 6  7  8  9  10  11  12  13  14  15  16  26  30  31  32  33  35 0
 6-311+G(2d,p)
 ****
 37  38 0
 6-311+G(2d,p)
 ****
 1  2  3  4  5  17  18  19  20  21  22  23  24  25 0
 3-21G
 ****
 27  28  29  34  36  39  40  41  42  43  44  45  46 0
 3-21G
 ****


