%nproc=1
%NoSave
%Mem=1900MB
#P OB98/GEN NMR

erre ene a

0 1
  C     -170.011     243.500     581.592
  O     -168.813     242.747     581.571
  H     -170.395     243.571     580.573
  H     -169.822     244.507     581.975
  H     -170.757     242.996     582.216
  P     -168.061     242.553     582.974
  C     -167.531     240.121     582.265
  O     -167.012     241.369     582.708
  C     -166.452     239.328     581.526
  O     -165.177     239.504     582.168
  C     -166.707     237.824     581.477
  O     -167.587     237.502     580.413
  C     -165.300     237.302     581.201
  O     -165.002     237.424     579.807
  C     -164.418     238.275     582.010
  N     -161.343     235.093     584.619
  C     -161.625     235.189     583.304
  N     -162.490     236.020     582.678
  C     -163.101     236.823     583.574
  C     -162.920     236.835     584.951
  C     -161.991     235.920     585.474
  N     -161.707     235.821     586.821
  N     -163.716     237.791     585.547
  C     -164.325     238.383     584.537
  N     -164.015     237.811     583.329
  O     -168.951     242.390     584.166
  O     -167.117     243.848     583.003
  H     -164.038     237.292     579.707
  H     -166.742     244.014     582.120
  H     -161.082     234.500     582.659
  H     -164.987     239.238     584.629
  H     -163.499     238.529     581.476
  H     -165.183     236.252     581.474
  H     -167.058     237.434     582.438
  H     -166.369     239.743     580.505
  H     -168.393     240.282     581.596
  H     -161.186     235.017     587.126
  H     -162.284     236.353     587.465
  H     -167.870     239.570     583.146
  P     -168.732     236.389     580.594
  C     -169.755     237.401     578.457
  O     -169.363     236.207     579.125
  O     -169.700     236.668     581.689
  O     -167.923     235.023     580.806
  H     -168.519     234.349     581.193
  H     -170.157     237.156     577.496
  H     -168.904     238.038     578.336
  H     -170.499     237.906     579.037

 6  7  8  9  10  11  12  13  14  15  25  28  32  33  34  35 0
 6-311+G(2d,p)
 ****
 36  39  40 0
 6-311+G(2d,p)
 ****
 1  2  3  4  5  16  17  18  19  20  21  22  23  24 0
 3-21G
 ****
 26  27  29  30  31  37  38  41  42  43  44  45  46  47 0
 3-21G
 ****
 48 0
 3-21G
 ****


