%nproc=1
%NoSave
%Mem=1900MB
#P OB98/GEN NMR

erre ene a

0 1
  C     -252.337       3.207     279.605
  O     -253.303       3.358     280.650
  P     -254.752       3.884     280.194
  C     -254.548       6.382     280.868
  O     -254.611       5.444     279.805
  C     -254.648       7.821     280.358
  O     -254.463       8.780     281.442
  C     -253.620       8.166     279.267
  O     -254.251       9.085     278.366
  C     -252.544       8.909     280.049
  O     -251.710       9.682     279.194
  C     -253.423       9.703     281.017
  N     -252.099      13.929     283.436
  C     -252.757      13.765     282.230
  N     -253.170      14.894     281.607
  N     -252.993      12.602     281.694
  C     -252.559      11.556     282.455
  C     -251.915      11.598     283.669
  C     -251.628      12.902     284.241
  O     -251.051      13.109     285.306
  N     -251.663      10.324     284.146
  C     -252.099       9.541     283.177
  N     -252.701      10.229     282.166
  O     -255.582       3.906     281.564
  O     -255.409       3.025     279.159
  H     -252.290      10.320     278.724
  H     -256.159       3.116     281.618
  H     -251.931      14.861     283.803
  H     -252.036       8.460     283.179
  H     -253.899      10.562     280.533
  H     -251.912       8.195     280.596
  H     -253.066      15.821     281.992
  H     -253.220       7.301     278.724
  H     -253.682      14.796     280.744
  H     -255.665       7.975     279.960
  H     -253.602       6.270     281.413
  H     -255.343       6.158     281.595
  P     -254.773       8.508     276.964
  C     -252.776       9.384     275.545
  O     -253.485       8.259     276.042
  O     -255.468       9.790     276.282
  O     -255.732       7.373     277.067
  H     -256.282       9.506     275.813
  H     -251.737       9.103     275.367
  H     -252.801      10.222     276.259
  H     -253.231       9.712     274.600
  H     -251.416       2.854     280.019
  H     -252.176       4.152     279.129
  H     -252.698       2.502     278.885

 3  4  5  6  7  8  9  10  11  12  23  26  30  31 0
 6-311+G(2d,p)
 ****
 33  35  36  37  38 0
 6-311+G(2d,p)
 ****
 1  2  13  14  15  16  17  18  19  20  21  22  24  25 0
 3-21G
 ****
 27  28  29  32  34  39  40  41  42  43  44  45  46  47  48  49 0
 3-21G
 ****


