%nproc=1
%NoSave
%Mem=1900MB
#P OB98/GEN NMR

erre ene a

0 1
  C     -130.428    -474.286    -150.164
  O     -131.546    -474.536    -149.316
  P     -131.938    -473.419    -148.227
  C     -134.154    -472.950    -149.468
  O     -132.978    -472.387    -148.892
  C     -135.305    -471.934    -149.482
  O     -135.629    -471.583    -148.110
  C     -134.983    -470.595    -150.171
  O     -135.242    -470.490    -151.573
  C     -135.958    -469.652    -149.479
  O     -137.249    -469.737    -150.104
  C     -136.034    -470.190    -148.057
  N     -135.062    -465.602    -146.003
  C     -135.985    -466.004    -146.921
  N     -136.155    -467.233    -147.422
  C     -135.306    -468.127    -146.855
  C     -134.322    -467.838    -145.923
  C     -134.198    -466.510    -145.498
  N     -133.265    -466.092    -144.578
  N     -133.623    -468.998    -145.590
  C     -134.165    -469.949    -146.343
  N     -135.196    -469.461    -147.116
  O     -130.796    -472.797    -147.490
  O     -132.877    -474.244    -147.212
  H     -137.856    -469.222    -149.536
  H     -132.709    -473.957    -146.298
  H     -136.651    -465.241    -147.310
  H     -133.846    -470.977    -146.356
  H     -137.055    -470.176    -147.658
  H     -135.648    -468.606    -149.546
  H     -133.944    -470.283    -149.968
  H     -136.192    -472.381    -149.929
  H     -134.466    -473.839    -148.920
  H     -133.228    -465.109    -144.358
  H     -132.590    -466.756    -144.227
  H     -133.888    -473.279    -150.480
  P     -134.249    -469.689    -152.547
  C     -134.368    -471.889    -153.970
  O     -133.593    -470.799    -153.509
  O     -133.259    -468.805    -151.855
  O     -135.253    -468.908    -153.510
  H     -135.757    -469.488    -154.119
  H     -133.834    -472.404    -154.754
  H     -135.348    -471.556    -154.350
  H     -134.530    -472.603    -153.138
  H     -130.293    -475.113    -150.830
  H     -129.549    -474.161    -149.567
  H     -130.603    -473.396    -150.732

 3  4  5  6  7  8  9  10  11  12  22  25  29  30  31  32 0
 6-311+G(2d,p)
 ****
 33  36  37 0
 6-311+G(2d,p)
 ****
 1  2  13  14  15  16  17  18  19  20  21  23  24  26 0
 3-21G
 ****
 27  28  34  35  38  39  40  41  42  43  44  45  46  47  48 0
 3-21G
 ****


