%nproc=1
%NoSave
%Mem=1900MB
#P OB98/GEN NMR

erre ene a

0 1
  C      171.872    -984.616    -554.805
  O      172.568    -984.089    -553.692
  P      174.080    -983.555    -553.918
  C      173.117    -981.171    -554.402
  O      173.933    -982.250    -554.846
  C      173.860    -979.828    -554.572
  O      174.984    -979.782    -553.643
  C      174.399    -979.573    -555.987
  O      174.236    -978.152    -556.244
  C      175.863    -979.937    -555.857
  O      176.653    -979.291    -556.867
  C      176.154    -979.433    -554.434
  N      177.360    -980.027    -553.855
  C      178.403    -979.152    -553.575
  O      178.376    -977.943    -553.852
  N      179.517    -979.709    -552.994
  C      179.721    -981.043    -552.760
  O      180.721    -981.507    -552.244
  C      178.626    -981.941    -553.197
  C      177.526    -981.383    -553.722
  O      174.625    -984.675    -554.915
  O      174.836    -983.373    -552.649
  H      173.966    -985.008    -555.556
  H      176.661    -978.317    -556.690
  H      180.263    -979.090    -552.746
  H      178.771    -983.000    -553.097
  H      176.709    -982.023    -554.080
  H      176.257    -978.344    -554.412
  H      176.003    -981.020    -555.939
  H      173.877    -980.150    -556.750
  H      173.156    -979.026    -554.294
  H      172.857    -981.291    -553.341
  H      172.174    -981.186    -554.981
  P      173.183    -977.706    -557.357
  C      172.155    -975.678    -556.048
  O      171.963    -976.959    -556.617
  O      172.549    -979.124    -557.753
  O      173.783    -976.997    -558.533
  H      172.305    -979.656    -556.985
  H      171.163    -975.257    -555.818
  H      172.642    -975.012    -556.761
  H      172.740    -975.747    -555.141
  H      170.894    -984.925    -554.500
  H      172.407    -985.457    -555.194
  H      171.789    -983.865    -555.562

 3  4  5  6  7  8  9  10  11  12  13  24  28  29  30  31  32 0
 6-311+G(2d,p)
 ****
 33  34 0
 6-311+G(2d,p)
 ****
 1  2  14  15  16  17  18  19  20  21  22  23  25  26  27 0
 3-21G
 ****
 35  36  37  38  39  40  41  42  43  44  45 0
 3-21G
 ****


