%nproc=1
%NoSave
%Mem=1900MB
#P OB98/GEN NMR

erre ene a

0 1
  C      163.549    -282.954      69.249
  O      162.268    -283.530      69.479
  P      161.351    -283.873      68.210
  C      162.889    -285.930      67.837
  O      162.216    -284.824      67.247
  C      162.007    -287.177      67.828
  O      162.777    -288.304      68.334
  C      160.738    -287.072      68.684
  O      159.720    -287.846      68.039
  C      161.139    -287.759      69.977
  O      160.013    -288.197      70.731
  C      162.023    -288.876      69.428
  N      162.353    -291.103      74.019
  C      161.288    -290.722      73.279
  N      161.280    -290.138      72.066
  C      162.533    -289.945      71.618
  C      163.718    -290.250      72.282
  C      163.596    -290.861      73.540
  N      164.678    -291.256      74.291
  N      164.806    -289.880      71.519
  C      164.295    -289.364      70.418
  N      162.925    -289.407      70.430
  O      161.310    -282.480      67.423
  O      159.975    -284.359      68.529
  H      159.413    -288.675      70.127
  H      160.408    -282.098      67.466
  H      160.315    -290.922      73.723
  H      164.858    -288.949      69.599
  H      161.437    -289.713      69.030
  H      161.715    -287.067      70.604
  H      160.391    -286.044      68.846
  H      161.748    -287.408      66.788
  H      163.126    -285.679      68.877
  H      164.510    -291.812      75.118
  H      165.596    -291.259      73.863
  H      163.819    -286.118      67.301
  P      158.224    -287.272      68.097
  C      158.592    -285.875      65.944
  O      158.235    -285.880      67.313
  O      158.050    -286.849      69.631
  O      157.180    -288.253      67.671
  H      157.113    -286.901      69.886
  H      158.028    -285.089      65.433
  H      158.379    -286.836      65.461
  H      159.662    -285.659      65.851
  H      164.037    -282.784      70.186
  H      163.434    -282.024      68.733
  H      164.139    -283.621      68.655

 3  4  5  6  7  8  9  10  11  12  22  25  29  30  31  32 0
 6-311+G(2d,p)
 ****
 33  36  37 0
 6-311+G(2d,p)
 ****
 1  2  13  14  15  16  17  18  19  20  21  23  24  26 0
 3-21G
 ****
 27  28  34  35  38  39  40  41  42  43  44  45  46  47  48 0
 3-21G
 ****


