%nproc=1
%NoSave
%Mem=1900MB
#P OB98/GEN NMR

erre ene a

0 1
  C      703.132    -210.610     803.580
  O      702.528    -209.585     804.351
  P      701.123    -209.893     805.055
  C      698.665    -210.246     804.251
  O      700.003    -209.857     803.929
  C      697.672    -209.559     803.288
  O      697.812    -210.099     801.951
  C      696.211    -209.775     803.671
  O      695.839    -208.904     804.742
  C      695.508    -209.475     802.356
  O      695.321    -208.055     802.186
  C      696.513    -210.027     801.320
  N      696.085    -211.300     800.745
  C      695.116    -211.249     799.777
  O      694.593    -210.193     799.399
  N      694.732    -212.448     799.250
  C      695.178    -213.679     799.652
  O      694.739    -214.727     799.173
  C      696.200    -213.678     800.705
  C      696.601    -212.526     801.216
  O      700.832    -208.599     805.937
  O      701.114    -211.144     805.872
  H      694.945    -207.718     803.027
  H      700.384    -208.856     806.784
  H      694.037    -212.438     798.525
  H      696.575    -214.641     801.036
  H      697.338    -212.480     802.006
  H      696.623    -209.300     800.499
  H      694.517    -209.927     802.307
  H      696.057    -210.835     803.930
  H      697.917    -208.485     803.258
  H      698.440    -209.957     805.271
  H      698.596    -211.351     804.155
  P      694.770    -209.490     805.804
  C      692.291    -210.288     805.565
  O      693.406    -209.687     804.930
  O      694.514    -208.210     806.729
  O      695.275    -210.681     806.549
  H      694.595    -207.384     806.206
  H      692.200    -210.002     806.617
  H      692.348    -211.370     805.473
  H      691.383    -209.943     805.038
  H      704.058    -210.255     803.178
  H      702.478    -210.887     802.780
  H      703.316    -211.462     804.201

 3  4  5  6  7  8  9  10  11  12  13  23  28  29  30  31  32 0
 6-311+G(2d,p)
 ****
 33  34 0
 6-311+G(2d,p)
 ****
 1  2  14  15  16  17  18  19  20  21  22  24  25  26 0
 3-21G
 ****
 27  35  36  37  38  39  40  41  42  43  44  45 0
 3-21G
 ****


