%nproc=1
%NoSave
%Mem=1900MB
#P OB98/GEN NMR

erre ene a

0 1
  C      -72.676     491.659    -601.777
  O      -72.781     491.039    -600.513
  P      -73.929     489.964    -600.204
  C      -72.614     488.297    -601.668
  O      -73.879     488.879    -601.389
  C      -72.737     486.758    -601.733
  O      -73.858     486.416    -602.609
  C      -71.466     486.077    -602.297
  O      -70.937     485.036    -601.471
  C      -71.899     485.647    -603.690
  O      -71.113     484.616    -604.249
  C      -73.392     485.350    -603.464
  N      -74.146     485.279    -604.716
  C      -74.507     484.017    -605.176
  O      -74.250     482.962    -604.581
  N      -75.148     483.961    -606.384
  C      -75.346     485.018    -607.223
  O      -75.831     484.895    -608.345
  C      -74.902     486.333    -606.715
  C      -74.354     486.404    -605.500
  O      -75.286     490.541    -599.936
  O      -73.323     489.128    -598.968
  H      -71.505     484.364    -605.101
  H      -72.472     488.683    -599.154
  H      -75.412     483.052    -606.722
  H      -75.036     487.178    -607.363
  H      -74.018     487.366    -605.092
  H      -73.531     484.412    -602.929
  H      -71.809     486.521    -604.350
  H      -70.643     486.797    -602.383
  H      -72.962     486.407    -600.720
  H      -71.917     488.566    -600.865
  H      -72.205     488.695    -602.605
  P      -69.392     484.602    -601.408
  C      -69.048     486.057    -599.273
  O      -68.592     485.717    -600.581
  O      -68.780     484.233    -602.727
  O      -69.396     483.341    -600.420
  H      -68.663     482.740    -600.656
  H      -68.755     487.099    -599.069
  H      -68.551     485.413    -598.542
  H      -70.131     485.958    -599.184
  H      -71.849     492.338    -601.774
  H      -73.577     492.196    -601.987
  H      -72.522     490.913    -602.528

 3  4  5  6  7  8  9  10  11  12  13  23  28  29  30  31  32 0
 6-311+G(2d,p)
 ****
 33  34 0
 6-311+G(2d,p)
 ****
 1  2  14  15  16  17  18  19  20  21  22  24  25  26  27 0
 3-21G
 ****
 35  36  37  38  39  40  41  42  43  44  45 0
 3-21G
 ****


