%nproc=1
%NoSave
%Mem=1900MB
#P OB98/GEN NMR

erre ene a

0 1
  C      -81.776      -9.587     119.543
  O      -80.617      -8.994     118.992
  H      -82.359      -8.811     120.046
  H      -81.498     -10.344     120.280
  H      -82.393     -10.035     118.760
  P      -79.649      -9.889     118.080
  C      -79.854     -11.015     115.770
  O      -80.548     -10.488     116.895
  C      -80.609     -12.217     115.206
  O      -80.521     -13.336     116.117
  C      -82.100     -11.965     115.001
  O      -82.322     -11.172     113.851
  C      -82.611     -13.395     114.912
  O      -82.371     -13.951     113.610
  C      -81.738     -14.103     115.974
  N      -82.418     -14.256     117.261
  C      -83.218     -15.388     117.402
  O      -83.363     -16.225     116.515
  N      -83.883     -15.501     118.596
  C      -83.901     -14.569     119.597
  O      -84.676     -14.608     120.543
  C      -82.978     -13.435     119.422
  C      -82.305     -13.324     118.273
  O      -78.815     -10.889     118.811
  O      -78.738      -8.808     117.324
  H      -77.867      -8.754     117.764
  H      -83.013     -13.529     113.004
  H      -84.504     -16.295     118.690
  H      -82.913     -12.704     120.221
  H      -81.644     -12.477     118.113
  H      -81.444     -15.102     115.622
  H      -83.686     -13.464     115.095
  H      -82.529     -11.491     115.891
  H      -80.130     -12.512     114.261
  H      -78.855     -11.333     116.093
  H      -79.748     -10.230     115.012
  P      -83.739     -10.473     113.589
  C      -85.093      -8.631     114.743
  O      -84.158      -9.685     114.921
  O      -84.796     -11.374     113.041
  O      -83.408      -9.288     112.557
  H      -84.001      -9.367     111.784
  H      -85.301      -8.176     115.689
  H      -85.998      -9.023     114.329
  H      -84.684      -7.900     114.078

 6  7  8  9  10  11  12  13  14  15  16  27  31  32  33  34  35 0
 6-311+G(2d,p)
 ****
 36  37 0
 6-311+G(2d,p)
 ****
 1  2  3  4  5  17  18  19  20  21  22  23  24  25 0
 3-21G
 ****
 26  28  29  30  38  39  40  41  42  43  44  45 0
 3-21G
 ****


