%nproc=1
%NoSave
%Mem=1900MB
#P OB98/GEN NMR

erre ene a

0 1
  C       24.414    -102.833      13.951
  O       25.134    -103.951      13.437
  P       25.820    -105.085      14.323
  C       28.147    -103.861      14.290
  O       27.104    -104.462      15.044
  C       29.297    -103.406      15.203
  O       28.867    -102.221      15.939
  C       29.680    -104.469      16.239
  O       31.085    -104.605      16.422
  C       28.858    -104.069      17.453
  O       29.346    -104.611      18.670
  C       28.857    -102.547      17.349
  N       26.977     -98.396      19.651
  C       28.268     -98.661      19.242
  N       29.189     -97.706      19.489
  N       28.630     -99.772      18.657
  C       27.631    -100.673      18.540
  C       26.316    -100.535      18.920
  C       25.913     -99.281      19.522
  O       24.778     -98.987      19.884
  N       25.591    -101.662      18.631
  C       26.468    -102.488      18.098
  N       27.723    -101.928      18.013
  O       25.997    -106.411      13.663
  O       24.789    -105.288      15.547
  H       30.252    -104.274      18.805
  H       24.852    -106.231      15.804
  H       26.748     -97.515      20.076
  H       26.250    -103.489      17.745
  H       29.746    -102.101      17.801
  H       27.844    -104.464      17.310
  H       29.005     -96.885      20.043
  H       29.369    -105.465      15.908
  H       30.164     -97.994      19.390
  H       30.152    -103.126      14.579
  H       27.700    -102.992      13.795
  H       28.503    -104.538      13.513
  P       32.133    -105.420      15.536
  C       31.580    -107.807      16.292
  O       31.525    -106.870      15.234
  O       33.350    -105.742      16.522
  O       32.626    -104.694      14.328
  H       34.167    -105.322      16.186
  H       31.389    -108.805      15.889
  H       30.810    -107.571      17.031
  H       32.564    -107.798      16.768
  H       24.061    -102.232      13.139
  H       25.059    -102.249      14.573
  H       23.581    -103.179      14.527

 3  4  5  6  7  8  9  10  11  12  23  26  30  31 0
 6-311+G(2d,p)
 ****
 33  35  36  37  38 0
 6-311+G(2d,p)
 ****
 1  2  13  14  15  16  17  18  19  20  21  22  24  25 0
 3-21G
 ****
 27  28  29  32  34  39  40  41  42  43  44  45  46  47  48  49 0
 3-21G
 ****


