%nproc=1
%NoSave
%Mem=1900MB
#P OB98/GEN NMR

erre ene a

0 1
  C     -165.715    -207.972    -662.873
  O     -165.406    -207.776    -661.488
  P     -165.658    -209.008    -660.492
  C     -164.230    -210.936    -659.476
  O     -164.342    -209.926    -660.475
  C     -162.938    -211.735    -659.672
  O     -162.938    -212.420    -660.941
  C     -161.696    -210.859    -659.694
  O     -161.329    -210.487    -658.374
  C     -160.676    -211.762    -660.383
  O     -159.960    -212.575    -659.433
  C     -161.560    -212.638    -661.302
  N     -161.335    -212.374    -662.712
  C     -160.046    -212.668    -663.190
  O     -159.180    -213.108    -662.426
  N     -159.772    -212.442    -664.516
  C     -160.683    -211.933    -665.286
  N     -160.350    -211.722    -666.591
  C     -162.041    -211.584    -664.813
  C     -162.294    -211.821    -663.530
  O     -166.725    -209.903    -661.281
  O     -166.169    -208.602    -659.149
  H     -159.450    -211.943    -658.882
  H     -167.323    -210.351    -660.655
  H     -162.768    -211.159    -665.498
  H     -163.261    -211.593    -663.094
  H     -161.358    -213.709    -661.127
  H     -159.931    -211.181    -660.927
  H     -161.871    -209.966    -660.310
  H     -162.861    -212.480    -658.867
  H     -159.411    -211.978    -666.880
  H     -165.094    -211.611    -659.525
  H     -160.982    -211.329    -667.274
  H     -164.257    -210.469    -658.485
  P     -161.351    -208.923    -658.008
  C     -162.944    -207.412    -656.682
  O     -162.628    -208.740    -657.055
  O     -161.858    -208.266    -659.380
  O     -160.072    -208.314    -657.536
  H     -161.826    -207.291    -659.313
  H     -163.932    -207.405    -656.211
  H     -162.962    -206.752    -657.553
  H     -162.213    -207.046    -655.952
  H     -165.500    -207.076    -663.417
  H     -166.753    -208.212    -662.976
  H     -165.123    -208.775    -663.260

 3  4  5  6  7  8  9  10  11  12  13  21  23  27  28  29  30  32 0
 6-311+G(2d,p)
 ****
 34  35 0
 6-311+G(2d,p)
 ****
 1  2  14  15  16  17  18  19  20  22  24  25  26 0
 3-21G
 ****
 31  33  36  37  38  39  40  41  42  43  44  45  46 0
 3-21G
 ****


