%nproc=1
%NoSave
%Mem=1900MB
#P OB98/GEN NMR

erre ene a

0 1
  C      569.976     626.568     176.820
  O      570.042     627.897     176.353
  H      569.208     626.504     177.601
  H      570.941     626.277     177.251
  H      569.710     625.885     176.004
  P      570.975     628.174     175.083
  C      572.214     630.336     175.910
  O      571.237     629.755     175.069
  C      571.647     631.541     176.669
  O      571.301     632.569     175.702
  C      570.380     631.226     177.466
  O      570.399     632.009     178.669
  C      569.254     631.699     176.565
  O      568.062     631.990     177.297
  C      569.915     632.917     175.891
  N      569.267     633.270     174.627
  C      567.994     633.843     174.713
  O      567.458     634.016     175.809
  N      567.329     634.157     173.543
  C      567.867     633.877     172.404
  N      567.148     634.185     171.290
  C      569.190     633.217     172.268
  C      569.814     632.956     173.406
  O      569.955     627.953     173.865
  O      572.205     627.322     175.023
  H      568.294     632.565     178.053
  H      569.091     628.370     174.003
  H      569.592     632.990     171.286
  H      570.806     632.485     173.403
  H      569.870     633.797     176.556
  H      569.010     630.938     175.825
  H      570.294     630.169     177.736
  H      572.431     631.950     177.303
  H      566.238     634.610     171.432
  H      573.088     630.655     175.327
  H      567.438     633.961     170.346
  H      572.549     629.562     176.626
  P      569.885     631.361     180.049
  C      568.456     633.392     180.815
  O      569.576     632.543     181.094
  O      570.710     630.243     180.578
  O      568.406     630.853     179.660
  H      568.272     629.988     180.092
  H      568.367     634.129     181.585
  H      567.563     632.804     180.779
  H      568.602     633.877     179.872

 6  7  8  9  10  11  12  13  14  15  16  26  30  31  32  33  35 0
 6-311+G(2d,p)
 ****
 37  38 0
 6-311+G(2d,p)
 ****
 1  2  3  4  5  17  18  19  20  21  22  23  24  25 0
 3-21G
 ****
 27  28  29  34  36  39  40  41  42  43  44  45  46 0
 3-21G
 ****


