%nproc=1
%NoSave
%Mem=1900MB
#P OB98/GEN NMR

erre ene a

0 1
  C       43.279      70.555       2.231
  O       42.340      69.991       3.126
  H       43.482      69.856       1.417
  H       42.857      71.473       1.813
  H       44.208      70.801       2.753
  P       42.830      68.728       3.987
  C       41.245      69.455       5.916
  O       41.644      68.421       5.028
  C       39.933      69.086       6.612
  O       38.830      69.362       5.709
  C       39.849      67.609       7.012
  O       39.194      67.507       8.279
  C       38.977      66.997       5.928
  O       38.314      65.818       6.370
  C       38.039      68.161       5.603
  N       34.212      66.155       2.884
  C       34.455      66.189       4.210
  N       35.500      66.751       4.858
  C       36.320      67.366       3.985
  C       36.203      67.415       2.605
  C       35.091      66.761       2.048
  N       34.855      66.690       0.695
  N       37.266      68.110       2.054
  C       38.006      68.472       3.084
  N       37.476      68.040       4.270
  O       43.980      69.367       4.906
  O       43.323      67.558       3.203
  H       37.664      66.072       7.059
  H       44.804      69.447       4.385
  H       33.716      65.693       4.839
  H       38.929      69.032       3.027
  H       37.201      68.231       6.307
  H       39.593      66.739       5.058
  H       40.829      67.128       7.069
  H       39.802      69.740       7.482
  H       41.108      70.381       5.343
  H       34.062      66.155       0.379
  H       35.529      67.084       0.055
  H       42.030      69.611       6.665
  P       40.127      67.228       9.555
  C       38.373      67.911      11.339
  O       39.188      66.874      10.810
  O       40.712      68.675       9.913
  O       41.225      66.247       9.290
  H       41.679      68.627      10.018
  H       37.807      67.533      12.164
  H       37.706      68.263      10.580
  H       38.993      68.718      11.671

 6  7  8  9  10  11  12  13  14  15  25  28  32  33  34  35 0
 6-311+G(2d,p)
 ****
 36  39  40 0
 6-311+G(2d,p)
 ****
 1  2  3  4  5  16  17  18  19  20  21  22  23  24 0
 3-21G
 ****
 26  27  29  30  31  37  38  41  42  43  44  45  46  47 0
 3-21G
 ****
 48 0
 3-21G
 ****


