%nproc=1
%NoSave
%Mem=1900MB
#P OB98/GEN NMR

erre ene a

0 1
  C     -478.810     405.356    -310.494
  O     -478.838     404.185    -311.281
  H     -479.797     405.831    -310.525
  H     -478.066     406.063    -310.880
  H     -478.574     405.109    -309.453
  P     -477.443     403.402    -311.442
  C     -475.232     404.033    -312.671
  O     -476.584     404.359    -312.404
  C     -474.471     405.287    -313.105
  O     -474.945     405.748    -314.392
  C     -474.636     406.474    -312.162
  O     -473.824     406.382    -311.005
  C     -474.191     407.606    -313.070
  O     -472.755     407.601    -313.184
  C     -474.855     407.193    -314.405
  N     -476.181     407.795    -314.597
  C     -476.232     409.170    -314.823
  O     -475.195     409.838    -314.845
  N     -477.460     409.777    -314.987
  C     -478.546     409.067    -314.936
  N     -479.727     409.718    -315.089
  C     -478.542     407.607    -314.719
  C     -477.348     407.047    -314.564
  O     -477.810     402.179    -312.414
  O     -476.778     402.998    -310.171
  H     -472.407     407.957    -312.340
  H     -476.987     401.699    -312.677
  H     -479.471     407.052    -314.681
  H     -477.261     405.970    -314.389
  H     -474.229     407.483    -315.258
  H     -474.482     408.595    -312.702
  H     -475.687     406.631    -311.896
  H     -473.411     405.016    -313.231
  H     -479.712     410.725    -315.179
  H     -475.203     403.289    -313.472
  H     -480.619     409.284    -314.888
  H     -474.758     403.617    -311.778
  P     -474.460     406.848    -309.608
  C     -474.467     409.043    -308.204
  O     -474.002     408.368    -309.371
  O     -473.584     406.050    -308.525
  O     -475.924     406.576    -309.453
  H     -474.144     405.734    -307.790
  H     -474.078     410.040    -308.190
  H     -474.136     408.518    -307.332
  H     -475.536     409.078    -308.214

 6  7  8  9  10  11  12  13  14  15  16  26  30  31  32  33  35 0
 6-311+G(2d,p)
 ****
 37  38 0
 6-311+G(2d,p)
 ****
 1  2  3  4  5  17  18  19  20  21  22  23  24  25 0
 3-21G
 ****
 27  28  29  34  36  39  40  41  42  43  44  45  46 0
 3-21G
 ****


