%nproc=1
%NoSave
%Mem=1900MB
#P OB98/GEN NMR

erre ene a

0 1
  C      -45.770     -48.503     403.071
  O      -45.332     -49.539     403.958
  P      -43.751     -49.670     404.198
  C      -43.153     -51.065     402.093
  O      -43.031     -49.817     402.767
  C      -42.497     -51.014     400.705
  O      -41.087     -50.667     400.803
  C      -42.574     -52.347     399.943
  O      -42.690     -52.040     398.549
  C      -41.204     -52.960     400.190
  O      -40.899     -53.970     399.228
  C      -40.336     -51.707     400.151
  N      -35.721     -53.876     399.698
  C      -36.795     -53.846     398.874
  N      -38.000     -53.260     399.079
  C      -38.016     -52.629     400.269
  C      -37.013     -52.579     401.210
  C      -35.813     -53.244     400.896
  N      -34.725     -53.300     401.744
  N      -37.422     -51.866     402.326
  C      -38.658     -51.500     402.047
  N      -39.052     -51.911     400.806
  O      -43.602     -51.131     404.845
  O      -43.183     -48.614     405.093
  H      -40.014     -54.322     399.440
  H      -43.388     -51.051     405.795
  H      -36.676     -54.366     397.929
  H      -39.312     -50.951     402.713
  H      -40.118     -51.383     399.122
  H      -41.184     -53.424     401.194
  H      -43.392     -53.006     400.243
  H      -42.982     -50.232     400.118
  H      -44.213     -51.329     401.977
  H      -33.925     -53.824     401.453
  H      -34.795     -52.870     402.659
  H      -42.711     -51.854     402.714
  P      -44.098     -52.364     397.856
  C      -43.898     -54.579     396.512
  O      -44.191     -53.964     397.756
  O      -43.890     -51.893     396.338
  O      -45.261     -51.683     398.499
  H      -44.751     -51.661     395.938
  H      -43.322     -55.493     396.692
  H      -43.320     -53.930     395.849
  H      -44.838     -54.844     396.012
  H      -46.837     -48.523     402.998
  H      -45.343     -48.659     402.102
  H      -45.456     -47.553     403.450

 3  4  5  6  7  8  9  10  11  12  22  25  29  30  31  32 0
 6-311+G(2d,p)
 ****
 33  36  37 0
 6-311+G(2d,p)
 ****
 1  2  13  14  15  16  17  18  19  20  21  23  24  26 0
 3-21G
 ****
 27  28  34  35  38  39  40  41  42  43  44  45  46  47  48 0
 3-21G
 ****


