%nproc=1
%NoSave
%Mem=1900MB
#P OB98/GEN NMR

erre ene a

0 1
  C     -125.159    -431.565     227.648
  O     -126.201    -432.099     228.446
  P     -127.173    -431.088     229.220
  C     -129.157    -432.725     228.834
  O     -128.426    -431.931     229.758
  C     -129.991    -433.775     229.579
  O     -129.112    -434.861     230.022
  C     -130.715    -433.243     230.822
  O     -131.952    -433.957     230.939
  C     -129.785    -433.649     231.946
  O     -130.414    -433.666     233.215
  C     -129.330    -435.027     231.437
  N     -128.134    -435.515     232.115
  C     -128.309    -436.180     233.323
  O     -129.402    -436.378     233.847
  N     -127.163    -436.575     233.960
  C     -125.887    -436.289     233.565
  O     -124.903    -436.565     234.247
  C     -125.759    -435.583     232.281
  C     -126.867    -435.233     231.626
  O     -127.794    -430.198     228.044
  O     -126.501    -430.250     230.256
  H     -131.151    -434.308     233.172
  H     -127.337    -429.339     227.986
  H     -127.270    -437.066     234.834
  H     -124.763    -435.365     231.932
  H     -126.805    -434.691     230.687
  H     -130.142    -435.754     231.556
  H     -128.947    -432.945     231.998
  H     -130.898    -432.160     230.790
  H     -130.706    -434.214     228.872
  H     -128.461    -433.228     228.163
  H     -129.805    -432.081     228.223
  P     -133.317    -433.110     230.822
  C     -134.518    -435.281     229.976
  O     -134.515    -434.177     230.860
  O     -133.258    -432.651     229.290
  O     -133.408    -431.978     231.789
  H     -132.973    -433.367     228.693
  H     -133.508    -435.638     229.785
  H     -134.983    -434.984     229.033
  H     -135.104    -436.089     230.423
  H     -124.605    -432.365     227.203
  H     -124.507    -430.977     228.260
  H     -125.578    -430.950     226.879

 3  4  5  6  7  8  9  10  11  12  13  23  28  29  30  31  32 0
 6-311+G(2d,p)
 ****
 33  34 0
 6-311+G(2d,p)
 ****
 1  2  14  15  16  17  18  19  20  21  22  24  25  26 0
 3-21G
 ****
 27  35  36  37  38  39  40  41  42  43  44  45 0
 3-21G
 ****


