%nproc=1
%NoSave
%Mem=1900MB
#P OB98/GEN NMR

erre ene a

0 1
  C     -174.595     526.143     526.838
  O     -175.572     525.493     526.058
  P     -175.378     525.280     524.483
  C     -174.781     522.781     524.283
  O     -174.282     524.115     524.306
  C     -174.360     522.076     522.986
  O     -175.006     522.754     521.860
  C     -172.839     522.111     522.751
  O     -172.248     520.832     522.494
  C     -172.692     523.131     521.632
  O     -171.482     523.023     520.910
  C     -173.988     522.920     520.849
  N     -174.280     524.025     519.941
  C     -173.821     523.910     518.630
  O     -173.202     522.942     518.191
  N     -174.046     524.988     517.821
  C     -174.560     526.186     518.212
  O     -174.639     527.144     517.451
  C     -174.993     526.268     519.612
  C     -174.857     525.194     520.396
  O     -175.085     526.516     523.701
  O     -176.727     524.537     524.050
  H     -171.404     523.796     520.324
  H     -176.886     523.683     524.492
  H     -173.719     524.917     516.870
  H     -175.396     527.206     519.955
  H     -175.170     525.218     521.437
  H     -173.956     521.999     520.271
  H     -172.701     524.128     522.091
  H     -172.308     522.474     523.646
  H     -174.732     521.048     523.031
  H     -175.867     522.806     524.339
  H     -174.417     522.231     525.161
  P     -170.856     520.327     523.098
  C     -171.401     520.097     525.627
  O     -170.751     520.823     524.611
  O     -169.656     520.615     522.254
  O     -171.068     518.746     523.252
  H     -170.216     518.294     523.165
  H     -171.669     520.777     526.442
  H     -170.718     519.337     526.018
  H     -172.310     519.614     525.257
  H     -174.919     526.180     527.857
  H     -174.451     527.138     526.473
  H     -173.673     525.604     526.776

 3  4  5  6  7  8  9  10  11  12  13  23  28  29  30  31  32 0
 6-311+G(2d,p)
 ****
 33  34 0
 6-311+G(2d,p)
 ****
 1  2  14  15  16  17  18  19  20  21  22  24  25  26  27 0
 3-21G
 ****
 35  36  37  38  39  40  41  42  43  44  45 0
 3-21G
 ****


