%nproc=1
%NoSave
%Mem=1900MB
#P OB98/GEN NMR

erre ene a

0 1
  C     -898.820    1238.694    -729.809
  O     -899.290    1239.858    -730.471
  P     -898.940    1241.316    -729.888
  C     -896.870    1242.027    -731.293
  O     -897.350    1241.516    -730.073
  C     -895.530    1242.729    -731.092
  O     -895.710    1243.789    -730.103
  C     -894.400    1241.849    -730.532
  O     -893.140    1242.487    -730.807
  C     -894.690    1241.874    -729.046
  O     -893.560    1241.507    -728.273
  C     -895.200    1243.334    -728.836
  N     -896.260    1243.369    -727.824
  C     -895.970    1242.840    -726.572
  O     -894.840    1242.420    -726.281
  N     -897.010    1242.731    -725.690
  C     -898.320    1243.041    -725.968
  O     -899.270    1242.663    -725.324
  C     -898.520    1243.814    -727.210
  C     -897.510    1243.922    -728.072
  O     -899.110    1241.101    -728.311
  O     -899.790    1242.414    -730.404
  H     -892.820    1242.110    -728.565
  H     -900.000    1241.400    -728.027
  H     -896.830    1242.205    -724.842
  H     -899.510    1244.213    -727.396
  H     -897.650    1244.433    -729.016
  H     -894.390    1243.992    -728.515
  H     -895.490    1241.157    -728.840
  H     -894.400    1240.832    -730.946
  H     -895.210    1243.198    -732.038
  H     -897.610    1242.718    -731.717
  H     -896.730    1241.216    -732.022
  P     -891.830    1241.569    -730.875
  C     -891.610    1241.577    -733.426
  O     -891.900    1240.802    -732.275
  O     -891.560    1240.708    -729.667
  O     -890.660    1242.637    -731.108
  H     -889.800    1242.247    -730.867
  H     -891.180    1240.912    -734.193
  H     -890.900    1242.376    -733.212
  H     -892.550    1242.009    -733.813
  H     -899.150    1237.825    -730.339
  H     -899.205    1238.671    -728.811
  H     -897.751    1238.709    -729.778

 3  4  5  6  7  8  9  10  11  12  13  23  28  29  30  31  32 0
 6-311+G(2d,p)
 ****
 33  34 0
 6-311+G(2d,p)
 ****
 1  2  14  15  16  17  18  19  20  21  22  24  25  26  27 0
 3-21G
 ****
 35  36  37  38  39  40  41  42  43  44  45 0
 3-21G
 ****


