%nproc=1
%NoSave
%Mem=1900MB
#P OB98/GEN NMR

erre ene a

0 1
  C     -558.278     112.855     -99.650
  O     -558.329     113.914     -98.689
  P     -559.767     114.596     -98.465
  C     -559.401     116.368    -100.312
  O     -560.204     115.300     -99.835
  C     -560.177     117.272    -101.279
  O     -561.225     118.001    -100.580
  C     -559.306     118.313    -101.984
  O     -559.846     118.491    -103.303
  C     -559.558     119.573    -101.175
  O     -559.196     120.744    -101.897
  C     -561.052     119.400    -100.894
  N     -563.245     123.814     -99.791
  C     -562.793     123.320    -101.000
  N     -563.009     124.095    -102.084
  N     -562.194     122.166    -101.135
  C     -562.085     121.482     -99.969
  C     -562.504     121.854     -98.716
  C     -563.137     123.149     -98.573
  O     -563.556     123.630     -97.530
  N     -562.241     120.871     -97.780
  C     -561.606     119.944     -98.478
  N     -561.539     120.238     -99.814
  O     -559.440     115.818     -97.485
  O     -560.780     113.668     -97.874
  H     -559.633     120.695    -102.774
  H     -559.673     115.589     -96.569
  H     -563.684     124.717     -99.741
  H     -561.206     119.030     -98.073
  H     -561.673     119.638    -101.771
  H     -558.980     119.546    -100.242
  H     -563.511     124.975    -102.057
  H     -558.243     118.056    -102.046
  H     -562.727     123.739    -102.988
  H     -560.665     116.632    -102.022
  H     -558.519     115.974    -100.824
  H     -559.023     116.939     -99.455
  P     -559.282     117.553    -104.475
  C     -556.974     118.717    -104.602
  O     -557.693     117.529    -104.341
  O     -559.532     118.438    -105.788
  O     -559.955     116.227    -104.589
  H     -559.817     117.858    -106.520
  H     -556.034     118.694    -104.045
  H     -557.540     119.605    -104.305
  H     -556.753     118.779    -105.670
  H     -557.278     112.480     -99.715
  H     -558.582     113.226    -100.606
  H     -558.936     112.067     -99.348

 3  4  5  6  7  8  9  10  11  12  23  26  30  31 0
 6-311+G(2d,p)
 ****
 33  35  36  37  38 0
 6-311+G(2d,p)
 ****
 1  2  13  14  15  16  17  18  19  20  21  22  24  25 0
 3-21G
 ****
 27  28  29  32  34  39  40  41  42  43  44  45  46  47  48  49 0
 3-21G
 ****


