%nproc=1
%NoSave
%Mem=1900MB
#P OB98/GEN NMR

erre ene a

0 1
  C      115.631    -285.998      53.077
  O      115.413    -285.168      54.205
  P      114.523    -285.756      55.405
  C      114.735    -285.613      58.024
  O      115.148    -285.147      56.750
  C      115.925    -285.641      58.988
  O      116.873    -286.643      58.568
  C      116.714    -284.339      59.059
  O      116.047    -283.359      59.840
  C      118.035    -284.826      59.644
  O      117.925    -284.983      61.068
  C      118.191    -286.203      58.967
  N      119.109    -286.188      57.829
  C      120.148    -287.112      57.865
  O      120.310    -287.908      58.791
  N      121.016    -287.076      56.806
  C      120.985    -286.187      55.771
  O      121.813    -286.173      54.870
  C      119.882    -285.213      55.802
  C      119.010    -285.258      56.813
  O      114.995    -287.286      55.395
  O      113.062    -285.541      55.214
  H      115.897    -287.384      55.047
  H      117.765    -284.091      61.433
  H      121.767    -287.751      56.801
  H      119.830    -284.486      55.002
  H      118.197    -284.543      56.859
  H      118.553    -286.943      59.691
  H      118.862    -284.134      59.453
  H      116.881    -283.951      58.048
  H      115.553    -285.921      59.983
  H      114.325    -286.621      57.920
  H      113.949    -284.953      58.408
  P      116.382    -281.821      59.501
  C      115.251    -279.544      60.103
  O      115.244    -280.947      60.214
  O      116.013    -281.758      57.945
  O      117.786    -281.430      59.821
  H      115.192    -282.234      57.734
  H      114.249    -279.167      60.331
  H      115.529    -279.221      59.095
  H      115.957    -279.122      60.826
  H      116.236    -285.479      52.364
  H      114.691    -286.249      52.632
  H      116.131    -286.893      53.384

 3  4  5  6  7  8  9  10  11  12  13  24  28  29  30  31  32 0
 6-311+G(2d,p)
 ****
 33  34 0
 6-311+G(2d,p)
 ****
 1  2  14  15  16  17  18  19  20  21  22  23  25  26  27 0
 3-21G
 ****
 35  36  37  38  39  40  41  42  43  44  45 0
 3-21G
 ****


