%nproc=1
%NoSave
%Mem=1900MB
#P OB98/GEN NMR

erre ene a

0 1
  C     -179.665     447.387    -234.897
  O     -180.004     448.761    -234.939
  H     -180.566     446.774    -234.969
  H     -179.014     447.158    -235.748
  H     -179.129     447.158    -233.972
  P     -180.950     449.310    -233.767
  C     -179.647     451.419    -232.980
  O     -179.975     450.053    -232.730
  C     -178.154     451.630    -232.755
  O     -177.392     450.809    -233.673
  C     -177.681     453.058    -232.995
  O     -177.931     453.901    -231.882
  C     -176.191     452.832    -233.195
  O     -175.558     452.620    -231.920
  C     -176.180     451.536    -234.020
  N     -173.239     451.564    -238.208
  C     -172.958     451.316    -236.910
  N     -173.799     451.336    -235.856
  C     -175.046     451.648    -236.242
  C     -175.481     451.936    -237.526
  C     -174.511     451.878    -238.548
  N     -174.792     452.147    -239.871
  N     -176.824     452.248    -237.528
  C     -177.201     452.117    -236.273
  N     -176.158     451.767    -235.459
  O     -181.375     447.982    -232.973
  O     -182.127     450.113    -234.207
  H     -174.698     452.197    -232.103
  H     -182.188     448.148    -232.457
  H     -171.920     451.074    -236.690
  H     -178.208     452.266    -235.908
  H     -175.327     450.892    -233.779
  H     -175.690     453.677    -233.669
  H     -178.108     453.478    -233.919
  H     -177.910     451.304    -231.736
  H     -180.211     452.053    -232.290
  H     -173.999     452.261    -240.482
  H     -175.697     452.525    -240.101
  H     -179.922     451.669    -234.009
  P     -179.218     454.852    -231.950
  C     -179.884     454.568    -229.448
  O     -180.219     454.325    -230.815
  O     -179.929     454.407    -233.311
  O     -178.915     456.318    -231.918
  H     -180.462     455.139    -233.683
  H     -180.644     454.159    -228.816
  H     -179.811     455.622    -229.281
  H     -178.946     454.105    -229.223

 6  7  8  9  10  11  12  13  14  15  25  28  32  33  34  35 0
 6-311+G(2d,p)
 ****
 36  39  40 0
 6-311+G(2d,p)
 ****
 1  2  3  4  5  16  17  18  19  20  21  22  23  24 0
 3-21G
 ****
 26  27  29  30  31  37  38  41  42  43  44  45  46  47 0
 3-21G
 ****
 48 0
 3-21G
 ****


