%nproc=1
%NoSave
%Mem=1900MB
#P OB98/GEN NMR

erre ene a

0 1
  C      -26.792     -20.421      -6.311
  O      -27.631     -19.761      -7.239
  H      -26.087     -19.694      -5.900
  H      -26.228     -21.222      -6.795
  H      -27.390     -20.829      -5.492
  P      -28.567     -20.660      -8.184
  C      -30.355     -22.462      -7.731
  O      -29.238     -21.749      -7.208
  C      -30.317     -23.932      -7.315
  O      -29.107     -24.565      -7.783
  C      -30.313     -24.153      -5.810
  O      -31.502     -23.776      -5.156
  C      -29.829     -25.591      -5.706
  O      -30.882     -26.534      -5.901
  C      -28.827     -25.663      -6.885
  N      -27.440     -25.652      -6.436
  C      -26.837     -26.895      -6.291
  O      -27.417     -27.961      -6.498
  N      -25.537     -26.880      -5.862
  C      -24.818     -25.771      -5.527
  O      -23.661     -25.826      -5.128
  C      -25.522     -24.486      -5.663
  C      -26.782     -24.484      -6.107
  O      -27.894     -21.255      -9.385
  O      -29.790     -19.694      -8.543
  H      -31.481     -26.454      -5.134
  H      -30.306     -20.043      -9.311
  H      -25.076     -27.771      -5.765
  H      -24.987     -23.586      -5.395
  H      -27.322     -23.547      -6.218
  H      -28.988     -26.583      -7.463
  H      -29.378     -25.804      -4.735
  H      -29.522     -23.528      -5.374
  H      -31.162     -24.441      -7.789
  H      -30.311     -22.396      -8.824
  H      -31.282     -21.995      -7.384
  P      -31.582     -23.401      -3.608
  C      -30.443     -21.637      -2.052
  O      -30.405     -22.365      -3.272
  O      -31.818     -24.529      -2.658
  O      -32.887     -22.450      -3.571
  H      -33.330     -22.604      -2.713
  H      -29.587     -20.997      -1.991
  H      -30.437     -22.320      -1.229
  H      -31.334     -21.045      -2.017

 6  7  8  9  10  11  12  13  14  15  16  26  31  32  33  34  35 0
 6-311+G(2d,p)
 ****
 36  37 0
 6-311+G(2d,p)
 ****
 1  2  3  4  5  17  18  19  20  21  22  23  24  25 0
 3-21G
 ****
 27  28  29  30  38  39  40  41  42  43  44  45 0
 3-21G
 ****


