%nproc=1
%NoSave
%Mem=1900MB
#P OB98/GEN NMR

erre ene a

0 1
  C     -370.934     385.668    -340.469
  O     -369.648     385.552    -341.066
  P     -369.394     384.501    -342.253
  C     -368.231     382.204    -342.265
  O     -369.095     383.085    -341.550
  C     -367.207     381.577    -341.321
  O     -366.411     382.633    -340.723
  C     -367.841     380.782    -340.179
  O     -367.011     379.647    -339.902
  C     -367.781     381.718    -338.989
  O     -367.762     380.988    -337.748
  C     -366.512     382.519    -339.289
  N     -365.813     385.319    -335.044
  C     -365.668     383.995    -335.282
  N     -365.896     383.316    -336.426
  C     -366.261     384.158    -337.409
  C     -366.438     385.527    -337.319
  C     -366.202     386.116    -336.067
  N     -366.334     387.469    -335.830
  N     -366.843     386.041    -338.534
  C     -366.886     385.013    -339.343
  N     -366.530     383.847    -338.715
  O     -368.373     384.922    -343.258
  O     -370.829     384.282    -342.916
  H     -367.687     381.650    -337.029
  H     -370.749     384.199    -343.887
  H     -365.335     383.405    -334.436
  H     -367.170     385.042    -340.382
  H     -365.612     381.996    -338.932
  H     -368.670     382.365    -338.984
  H     -368.865     380.451    -340.405
  H     -366.531     380.943    -341.910
  H     -367.710     382.780    -343.033
  H     -366.030     387.812    -334.937
  H     -366.460     388.082    -336.629
  H     -368.831     381.430    -342.762
  P     -367.760     378.387    -339.221
  C     -366.968     376.954    -337.191
  O     -367.073     378.237    -337.779
  O     -367.748     377.183    -340.115
  O     -369.210     378.999    -338.941
  H     -369.177     379.980    -338.862
  H     -366.515     377.064    -336.204
  H     -366.332     376.307    -337.804
  H     -367.958     376.501    -337.087
  H     -370.906     386.415    -339.703
  H     -371.215     384.728    -340.041
  H     -371.649     385.948    -341.214

 3  4  5  6  7  8  9  10  11  12  22  25  29  30  31  32 0
 6-311+G(2d,p)
 ****
 33  36  37 0
 6-311+G(2d,p)
 ****
 1  2  13  14  15  16  17  18  19  20  21  23  24  26 0
 3-21G
 ****
 27  28  34  35  38  39  40  41  42  43  44  45  46  47  48 0
 3-21G
 ****


