%nproc=1
%NoSave
%Mem=1900MB
#P OB98/GEN NMR

erre ene a

0 1
  C      157.209     348.085     -44.839
  O      158.020     349.157     -45.335
  P      159.621     349.044     -45.404
  C      160.497     349.879     -43.138
  O      160.228     348.738     -43.945
  C      161.848     349.803     -42.411
  O      161.823     348.785     -41.372
  C      163.049     349.476     -43.311
  O      164.171     350.138     -42.725
  C      163.174     347.971     -43.148
  O      164.442     347.462     -43.531
  C      162.857     347.825     -41.665
  N      164.374     342.996     -40.885
  C      165.068     344.143     -41.028
  N      164.597     345.393     -41.196
  C      163.253     345.406     -41.161
  C      162.409     344.319     -41.009
  C      163.020     343.059     -40.874
  N      162.319     341.881     -40.773
  N      161.083     344.716     -41.053
  C      161.135     346.020     -41.240
  N      162.424     346.486     -41.311
  O      160.285     350.182     -46.108
  O      159.885     347.683     -46.204
  H      164.400     346.488     -43.514
  H      160.574     347.838     -46.879
  H      166.151     344.039     -41.022
  H      160.277     346.668     -41.358
  H      163.726     348.072     -41.046
  H      162.415     347.476     -43.776
  H      162.910     349.782     -44.350
  H      162.005     350.761     -41.905
  H      159.695     349.981     -42.397
  H      162.842     341.021     -40.778
  H      161.315     341.895     -40.895
  H      160.475     350.770     -43.776
  P      164.831     351.434     -43.398
  C      166.885     350.086     -44.118
  O      165.813     350.904     -44.549
  O      165.455     352.393     -42.435
  O      163.636     352.120     -44.213
  H      163.858     353.051     -44.401
  H      167.663     350.707     -43.664
  H      167.308     349.564     -44.985
  H      166.545     349.345     -43.394
  H      156.178     348.369     -44.881
  H      157.480     347.872     -43.826
  H      157.364     347.213     -45.440

 3  4  5  6  7  8  9  10  11  12  22  25  29  30  31  32 0
 6-311+G(2d,p)
 ****
 33  36  37 0
 6-311+G(2d,p)
 ****
 1  2  13  14  15  16  17  18  19  20  21  23  24  26 0
 3-21G
 ****
 27  28  34  35  38  39  40  41  42  43  44  45  46  47  48 0
 3-21G
 ****


