%nproc=1
%NoSave
%Mem=1900MB
#P OB98/GEN NMR

erre ene a

0 1
  C      410.471      22.916      32.327
  O      409.426      22.734      33.292
  P      407.869      22.672      32.911
  C      407.424      20.140      32.579
  O      407.637      21.403      31.951
  C      406.074      19.551      32.163
  O      406.032      19.353      30.729
  C      405.764      18.173      32.743
  O      405.435      18.224      34.115
  C      404.618      17.727      31.834
  O      403.357      18.238      32.294
  C      404.992      18.370      30.485
  N      405.414      17.401      29.484
  C      404.416      16.592      28.932
  O      403.256      16.662      29.348
  N      404.763      15.717      27.935
  C      406.005      15.585      27.594
  N      406.282      14.712      26.584
  C      407.106      16.318      28.253
  C      406.743      17.200      29.176
  O      407.331      23.950      32.353
  O      407.111      22.269      34.263
  H      406.195      22.609      34.242
  H      403.168      17.797      33.145
  H      408.131      16.144      27.962
  H      407.487      17.795      29.693
  H      404.141      18.947      30.094
  H      404.525      16.634      31.795
  H      406.628      17.513      32.587
  H      405.289      20.268      32.443
  H      405.510      14.235      26.146
  H      407.435      20.285      33.663
  H      407.215      14.548      26.231
  H      408.249      19.463      32.313
  P      405.186      16.826      34.860
  C      407.521      16.153      35.787
  O      406.549      15.983      34.776
  O      404.191      16.046      33.872
  O      404.607      16.943      36.234
  H      403.532      15.551      34.396
  H      408.100      15.235      35.869
  H      407.063      16.376      36.753
  H      408.188      16.971      35.507
  H      411.418      22.923      32.824
  H      410.328      23.846      31.818
  H      410.446      22.114      31.619

 3  4  5  6  7  8  9  10  11  12  13  24  27  28  29  30  32 0
 6-311+G(2d,p)
 ****
 34  35 0
 6-311+G(2d,p)
 ****
 1  2  14  15  16  17  18  19  20  21  22  23  25  26 0
 3-21G
 ****
 31  33  36  37  38  39  40  41  42  43  44  45  46 0
 3-21G
 ****


