%nproc=1
%NoSave
%Mem=1900MB
#P OB98/GEN NMR

erre ene a

0 1
  C     -226.014     366.284    -142.847
  O     -226.895     365.158    -142.818
  P     -226.474     363.940    -141.855
  C     -228.873     363.973    -140.845
  O     -227.473     363.957    -140.599
  C     -229.650     363.669    -139.567
  O     -229.416     362.320    -139.126
  C     -229.268     364.545    -138.380
  O     -229.887     365.821    -138.448
  C     -229.831     363.734    -137.221
  O     -231.237     364.003    -137.073
  C     -229.608     362.287    -137.691
  N     -227.999     359.044    -134.143
  C     -229.282     359.435    -134.467
  N     -230.281     358.862    -133.763
  N     -229.563     360.312    -135.397
  C     -228.466     360.780    -136.041
  C     -227.146     360.470    -135.812
  C     -226.847     359.524    -134.758
  O     -225.728     359.166    -134.410
  N     -226.317     361.141    -136.672
  C     -227.134     361.834    -137.440
  N     -228.451     361.659    -137.086
  O     -225.088     364.441    -141.230
  O     -226.331     362.632    -142.559
  H     -231.659     363.800    -137.932
  H     -224.538     363.674    -140.980
  H     -227.839     358.372    -133.414
  H     -226.828     362.469    -138.262
  H     -230.483     361.656    -137.495
  H     -229.358     363.976    -136.266
  H     -230.142     358.128    -133.085
  H     -228.178     364.621    -138.286
  H     -231.232     359.110    -134.009
  H     -230.721     363.784    -139.784
  H     -229.124     363.232    -141.607
  H     -229.150     364.951    -141.250
  P     -229.107     366.970    -139.252
  C     -231.388     367.164    -140.473
  O     -229.980     367.243    -140.566
  O     -227.807     366.214    -139.796
  O     -228.759     368.167    -138.432
  H     -227.069     366.844    -139.897
  H     -231.751     367.652    -139.565
  H     -231.699     366.116    -140.478
  H     -231.826     367.666    -141.339
  H     -226.400     367.022    -143.519
  H     -225.046     365.971    -143.179
  H     -225.937     366.702    -141.865

 3  4  5  6  7  8  9  10  11  12  23  26  30  31  33  0
 6-311+G(2d,p)
 ****
 35  36  37  38 0
 6-311+G(2d,p)
 ****
 1  2  13  14  15  16  17  18  19  20  21  22  24  25  27  28  29 0
 3-21G
 ****
 32  34  39  40  41  42  43  44  45  46  47  48  49 0
 3-21G
 ****


