%nproc=1
%NoSave
%Mem=1900MB
#P OB98/GEN NMR

erre ene a

0 1
  C      -25.194     105.259      -6.780
  O      -23.886     105.790      -6.846
  H      -25.572     105.129      -7.797
  H      -25.849     105.953      -6.248
  H      -25.192     104.288      -6.278
  P      -23.070     105.866      -5.467
  C      -23.846     108.310      -5.066
  O      -23.795     106.981      -4.569
  C      -25.207     108.932      -4.769
  O      -26.267     108.082      -5.263
  C      -25.489     109.144      -3.285
  O      -24.901     110.344      -2.803
  C      -27.006     109.243      -3.301
  O      -27.404     110.547      -3.774
  C      -27.380     108.169      -4.329
  N      -30.922     104.766      -3.078
  C      -31.057     106.021      -3.641
  N      -32.317     106.433      -3.898
  N      -30.049     106.806      -3.922
  C      -28.848     106.268      -3.599
  C      -28.587     105.036      -3.041
  C      -29.710     104.177      -2.743
  O      -29.645     103.047      -2.266
  N      -27.243     104.839      -2.870
  C      -26.692     105.954      -3.305
  N      -27.624     106.857      -3.752
  O      -21.694     106.573      -5.890
  O      -22.822     104.558      -4.796
  H      -26.917     111.200      -3.238
  H      -20.968     106.189      -5.361
  H      -31.732     104.208      -2.871
  H      -25.630     106.156      -3.320
  H      -28.273     108.436      -4.906
  H      -27.446     109.114      -2.312
  H      -33.138     105.900      -3.661
  H      -25.187     108.275      -2.690
  H      -32.438     107.335      -4.341
  H      -25.270     109.883      -5.314
  H      -23.684     108.296      -6.149
  H      -23.052     108.897      -4.594
  P      -23.713     110.211      -1.729
  C      -24.952     111.908      -0.204
  O      -24.357     110.621      -0.319
  O      -22.769     111.456      -2.080
  O      -22.974     108.917      -1.765
  H      -21.861     111.286      -1.763
  H      -25.335     112.036       0.787
  H      -25.751     111.996      -0.910
  H      -24.217     112.660      -0.402

 6  7  8  9  10  11  12  13  14  15  26  29  33  34 0
 6-311+G(2d,p)
 ****
 36  38  39  40  41 0
 6-311+G(2d,p)
 ****
 1  2  3  4  5  16  17  18  19  20  21  22  23  24  25 0
 3-21G
 ****
 27  28  30  31  32  35  37  42  43  44  45  46  47 0
 3-21G
 ****
 48  49 0
 3-21G
 ****


