%nproc=1
%NoSave
%Mem=1900MB
#P OB98/GEN NMR

erre ene a

0 1
  C       55.939    -106.161     -81.550
  O       57.014    -106.444     -82.419
  H       56.230    -106.430     -80.531
  H       55.068    -106.759     -81.830
  H       55.682    -105.099     -81.570
  P       56.966    -105.889     -83.922
  C       59.256    -104.974     -84.685
  O       58.434    -106.122     -84.527
  C       59.898    -104.598     -83.349
  O       60.418    -105.817     -82.734
  C       61.072    -103.608     -83.489
  O       61.087    -102.755     -82.340
  C       62.263    -104.546     -83.456
  O       63.453    -103.876     -83.124
  C       61.801    -105.572     -82.425
  N       62.609    -106.786     -82.477
  C       63.313    -107.121     -81.326
  O       63.296    -106.450     -80.295
  N       64.114    -108.228     -81.415
  C       64.357    -108.947     -82.548
  O       65.145    -109.881     -82.590
  C       63.624    -108.513     -83.750
  C       62.793    -107.474     -83.659
  O       56.435    -104.504     -84.092
  O       56.099    -106.976     -84.717
  H       64.178    -104.517     -83.017
  H       55.734    -106.586     -85.534
  H       64.624    -108.490     -80.586
  H       63.808    -109.052     -84.668
  H       62.251    -107.115     -84.527
  H       61.846    -105.154     -81.411
  H       62.402    -105.012     -84.437
  H       61.023    -103.008     -84.401
  H       59.127    -104.204     -82.677
  H       58.627    -104.150     -85.042
  H       60.031    -105.181     -85.431
  P       60.252    -101.385     -82.293
  C       59.466    -101.350     -79.848
  O       60.309    -100.740     -80.820
  O       58.870    -101.491     -82.853
  O       61.118    -100.364     -83.173
  H       60.524     -99.881     -83.779
  H       59.581    -100.847     -78.910
  H       59.737    -102.379     -79.736
  H       58.447    -101.282     -80.167

 6  7  8  9  10  11  12  13  14  15  16  26  31  32  33  34  35 0
 6-311+G(2d,p)
 ****
 36  37 0
 6-311+G(2d,p)
 ****
 1  2  3  4  5  17  18  19  20  21  22  23  24  25 0
 3-21G
 ****
 27  28  29  30  38  39  40  41  42  43  44  45 0
 3-21G
 ****


