%nproc=1
%NoSave
%Mem=1900MB
#P OB98/GEN NMR

erre ene a

0 1
  C     -601.442    -209.675     860.282
  O     -600.676    -210.664     859.628
  H     -602.157    -210.169     860.946
  H     -601.996    -209.082     859.551
  H     -600.803    -209.023     860.882
  P     -599.435    -210.208     858.721
  C     -597.907    -209.983     860.778
  O     -598.098    -210.601     859.514
  C     -596.434    -209.611     860.954
  O     -595.612    -210.801     860.856
  C     -595.907    -208.661     859.889
  O     -596.356    -207.337     860.105
  C     -594.407    -208.875     860.039
  O     -593.877    -208.092     861.118
  C     -594.321    -210.382     860.358
  N     -593.927    -211.167     859.184
  C     -593.094    -212.256     859.424
  O     -592.695    -212.574     860.539
  N     -592.680    -212.938     858.310
  C     -592.895    -212.558     857.016
  O     -592.306    -213.053     856.060
  C     -593.831    -211.442     856.825
  C     -594.291    -210.797     857.904
  O     -599.486    -208.801     858.218
  O     -599.456    -211.259     857.508
  H     -599.848    -210.837     856.723
  H     -592.919    -208.296     861.150
  H     -592.038    -213.700     858.469
  H     -594.088    -211.157     855.816
  H     -594.959    -209.949     857.792
  H     -593.594    -210.562     861.159
  H     -593.870    -208.581     859.130
  H     -596.216    -209.013     858.901
  H     -596.302    -209.186     861.959
  H     -598.201    -210.686     861.568
  H     -598.537    -209.093     860.841
  P     -596.824    -206.434     858.867
  C     -599.350    -206.321     859.336
  O     -598.121    -205.603     859.314
  O     -596.959    -207.159     857.567
  O     -595.693    -205.300     858.769
  H     -595.383    -205.244     857.848
  H     -600.139    -205.668     859.647
  H     -599.273    -207.139     860.021
  H     -599.562    -206.695     858.356

 6  7  8  9  10  11  12  13  14  15  16  27  31  32  33  34  35 0
 6-311+G(2d,p)
 ****
 36  37 0
 6-311+G(2d,p)
 ****
 1  2  3  4  5  17  18  19  20  21  22  23  24  25 0
 3-21G
 ****
 26  28  29  30  38  39  40  41  42  43  44  45 0
 3-21G
 ****


