%nproc=1
%NoSave
%Mem=1900MB
#P OB98/GEN NMR

erre ene a

0 1
  C      318.508      19.977     197.067
  O      319.207      21.192     196.914
  H      317.828      19.856     196.221
  H      317.920      20.001     197.989
  H      319.193      19.126     197.090
  P      320.509      21.450     197.807
  C      322.339      21.195     196.004
  O      321.712      20.622     197.142
  C      323.376      20.239     195.405
  O      324.248      19.754     196.453
  C      322.686      19.014     194.800
  O      323.433      18.458     193.720
  C      322.672      18.028     195.956
  O      322.537      16.674     195.534
  C      324.007      18.344     196.625
  N      325.355      14.942     200.170
  C      325.386      14.831     198.793
  N      325.812      13.648     198.299
  N      325.019      15.785     197.980
  C      324.544      16.883     198.617
  C      324.439      17.103     199.971
  C      324.888      16.053     200.863
  O      324.864      16.090     202.088
  N      323.891      18.332     200.240
  C      323.659      18.852     199.053
  N      324.049      18.017     198.035
  O      320.220      20.624     199.149
  O      320.819      22.886     198.105
  H      322.852      16.106     196.263
  H      320.723      20.998     199.894
  H      325.664      14.183     200.749
  H      323.215      19.824     198.873
  H      324.826      17.800     196.136
  H      321.811      18.258     196.592
  H      325.936      12.832     198.879
  H      321.677      19.242     194.453
  H      325.567      13.447     197.325
  H      324.007      20.769     194.684
  H      322.827      22.117     196.335
  H      321.589      21.470     195.258
  P      322.889      18.713     192.234
  C      325.042      19.830     191.240
  O      323.687      19.961     191.626
  O      321.407      19.267     192.466
  O      322.902      17.493     191.372
  H      320.751      18.579     192.248
  H      325.397      20.765     190.860
  H      325.126      19.082     190.480
  H      325.628      19.544     192.088

 6  7  8  9  10  11  12  13  14  15  26  29  33  34 0
 6-311+G(2d,p)
 ****
 36  38  39  40  41 0
 6-311+G(2d,p)
 ****
 1  2  3  4  5  16  17  18  19  20  21  22  23  24  25 0
 3-21G
 ****
 27  28  30  31  32  35  37  42  43  44  45  46  47 0
 3-21G
 ****
 48  49 0
 3-21G
 ****


