%nproc=1
%NoSave
%Mem=1900MB
#P OB98/GEN NMR

erre ene a

0 1
  C     -230.156    -646.787     443.739
  O     -231.354    -647.213     444.364
  H     -229.511    -647.652     443.550
  H     -230.405    -646.311     442.784
  H     -229.632    -646.062     444.368
  P     -231.227    -647.778     445.862
  C     -232.903    -646.037     446.822
  O     -232.614    -647.409     446.587
  C     -234.269    -645.884     447.506
  O     -235.309    -646.183     446.547
  C     -234.454    -646.827     448.705
  O     -235.174    -646.136     449.735
  C     -235.319    -647.950     448.139
  O     -236.066    -648.612     449.155
  C     -236.165    -647.193     447.123
  N     -240.383    -649.397     445.254
  C     -240.193    -648.477     446.231
  N     -239.037    -647.945     446.668
  C     -237.998    -648.401     445.940
  C     -238.036    -649.335     444.911
  C     -239.298    -649.849     444.578
  N     -239.490    -650.803     443.606
  N     -236.753    -649.575     444.437
  C     -235.966    -648.801     445.165
  N     -236.676    -648.080     446.089
  O     -230.175    -646.764     446.522
  O     -230.793    -649.201     445.983
  H     -235.436    -648.957     449.822
  H     -229.271    -647.017     446.254
  H     -241.098    -648.145     446.744
  H     -234.891    -648.735     445.071
  H     -237.032    -646.697     447.585
  H     -234.671    -648.690     447.646
  H     -233.513    -647.196     449.109
  H     -234.395    -644.831     447.804
  H     -232.917    -645.508     445.859
  H     -240.419    -651.160     443.471
  H     -238.683    -651.200     443.133
  H     -232.121    -645.607     447.459
  P     -234.490    -646.084     451.190
  C     -234.509    -643.510     451.467
  O     -234.983    -644.760     451.944
  O     -232.945    -645.793     450.864
  O     -234.650    -647.359     451.963
  H     -232.376    -646.424     451.344
  H     -234.919    -642.722     452.063
  H     -234.810    -643.380     450.448
  H     -233.441    -643.486     451.530

 6  7  8  9  10  11  12  13  14  15  25  28  32  33  34  35 0
 6-311+G(2d,p)
 ****
 36  39  40 0
 6-311+G(2d,p)
 ****
 1  2  3  4  5  16  17  18  19  20  21  22  23  24 0
 3-21G
 ****
 26  27  29  30  31  37  38  41  42  43  44  45  46  47 0
 3-21G
 ****
 48 0
 3-21G
 ****


