%nproc=1
%NoSave
%Mem=1900MB
#P OB98/GEN NMR

erre ene a

0 1
  C     -331.735     470.377      61.717
  O     -333.088     470.406      61.303
  H     -331.103     470.013      60.904
  H     -331.424     471.389      61.983
  H     -331.623     469.731      62.593
  P     -333.732     469.016      60.832
  C     -335.454     468.905      62.769
  O     -335.250     468.996      61.366
  C     -336.564     469.862      63.196
  O     -336.032     471.209      63.197
  C     -337.813     469.840      62.298
  O     -338.976     469.513      63.066
  C     -337.947     471.273      61.801
  O     -339.298     471.732      61.769
  C     -337.106     472.071      62.794
  N     -336.839     477.133      63.311
  C     -337.062     476.153      64.214
  N     -337.017     474.817      64.032
  C     -336.672     474.523      62.763
  C     -336.383     475.410      61.741
  C     -336.495     476.777      62.047
  N     -336.320     477.777      61.115
  N     -336.074     474.732      60.576
  C     -336.213     473.456      60.886
  N     -336.593     473.282      62.186
  O     -332.994     467.936      61.758
  O     -333.568     468.704      59.382
  H     -339.279     472.632      61.388
  H     -332.678     467.195      61.210
  H     -337.326     476.489      65.212
  H     -336.102     472.629      60.193
  H     -337.677     472.345      63.686
  H     -337.534     471.340      60.785
  H     -337.714     469.141      61.459
  H     -336.840     469.625      64.232
  H     -334.530     469.175      63.292
  H     -336.539     478.721      61.391
  H     -336.179     477.510      60.149
  H     -335.709     467.872      63.024
  P     -340.317     469.185      62.238
  C     -340.636     466.747      63.104
  O     -341.128     468.079      63.081
  O     -339.767     468.359      60.984
  O     -341.091     470.389      61.829
  H     -340.376     468.461      60.226
  H     -341.282     466.139      63.702
  H     -339.650     466.738      63.520
  H     -340.605     466.361      62.107

 6  7  8  9  10  11  12  13  14  15  25  28  32  33  34  35 0
 6-311+G(2d,p)
 ****
 36  39  40 0
 6-311+G(2d,p)
 ****
 1  2  3  4  5  16  17  18  19  20  21  22  23  24 0
 3-21G
 ****
 26  27  29  30  31  37  38  41  42  43  44  45  46  47  48 0
 3-21G
 ****


