%nproc=1
%NoSave
%Mem=1900MB
#P OB98/GEN NMR

erre ene a

0 1
  C      137.495      76.761     -47.029
  O      137.182      76.961     -45.666
  H      137.610      77.722     -47.533
  H      138.437      76.211     -47.098
  H      136.709      76.177     -47.515
  P      135.846      77.788     -45.343
  C      134.233      75.771     -45.129
  O      134.903      76.830     -44.461
  C      132.742      75.809     -44.801
  O      132.073      74.799     -45.597
  C      132.405      75.552     -43.322
  O      131.674      76.656     -42.782
  C      131.492      74.336     -43.348
  O      130.406      74.428     -42.427
  C      131.003      74.291     -44.791
  N      128.191      70.229     -43.549
  C      128.065      71.534     -43.227
  N      128.784      72.582     -43.675
  C      129.702      72.180     -44.571
  C      129.932      70.890     -45.018
  C      129.137      69.880     -44.452
  N      129.302      68.542     -44.739
  N      130.966      70.867     -45.935
  C      131.381      72.115     -46.007
  N      130.659      72.941     -45.187
  O      135.101      77.847     -46.760
  O      136.067      79.151     -44.778
  H      130.781      74.744     -41.583
  H      134.812      78.761     -46.939
  H      127.288      71.767     -42.504
  H      132.219      72.466     -46.595
  H      130.126      74.929     -44.950
  H      132.080      73.445     -43.099
  H      133.295      75.362     -42.712
  H      132.346      76.782     -45.116
  H      134.644      74.810     -44.799
  H      128.769      67.879     -44.201
  H      130.076      68.267     -45.326
  H      134.397      75.868     -46.207
  P      132.330      77.406     -41.519
  C      133.676      79.457     -42.386
  O      132.439      78.963     -41.891
  O      133.851      76.910     -41.558
  O      131.671      77.092     -40.218
  H      134.235      76.937     -40.662
  H      133.588      80.505     -42.586
  H      133.930      78.942     -43.289
  H      134.442      79.296     -41.656

 6  7  8  9  10  11  12  13  14  15  25  28  32  33  34  35 0
 6-311+G(2d,p)
 ****
 36  39  40 0
 6-311+G(2d,p)
 ****
 1  2  3  4  5  16  17  18  19  20  21  22  23  24 0
 3-21G
 ****
 26  27  29  30  31  37  38  41  42  43  44  45  46  47  48 0
 3-21G
 ****


