%nproc=1
%NoSave
%Mem=1900MB
#P OB98/GEN NMR

erre ene a

0 1
  C     -166.894     759.585    -580.681
  O     -165.928     760.320    -581.425
  P     -165.759     761.897    -581.100
  C     -163.692     761.618    -579.516
  O     -165.047     762.032    -579.660
  C     -163.307     761.553    -578.030
  O     -164.112     760.585    -577.317
  C     -161.851     761.104    -577.804
  O     -160.954     762.212    -577.944
  C     -161.913     760.667    -576.333
  O     -161.875     761.804    -575.487
  C     -163.305     760.002    -576.264
  N     -165.291     755.545    -574.686
  C     -165.495     756.823    -574.274
  N     -164.922     757.957    -574.731
  C     -164.057     757.671    -575.722
  C     -163.729     756.422    -576.239
  C     -164.395     755.325    -575.677
  N     -164.168     754.025    -576.089
  N     -162.783     756.542    -577.238
  C     -162.541     757.825    -577.340
  N     -163.285     758.556    -576.436
  O     -167.258     762.370    -580.830
  O     -165.124     762.680    -582.203
  H     -162.649     762.350    -575.699
  H     -167.377     763.280    -581.122
  H     -166.242     756.952    -573.474
  H     -161.856     758.279    -578.059
  H     -163.815     760.208    -575.312
  H     -161.079     760.016    -576.065
  H     -161.595     760.252    -578.448
  H     -163.459     762.550    -577.585
  H     -163.042     762.316    -580.051
  H     -164.711     753.300    -575.659
  H     -163.527     753.857    -576.844
  H     -163.566     760.644    -580.008
  P     -160.439     762.518    -579.419
  C     -161.886     764.681    -579.698
  O     -161.613     763.358    -580.128
  O     -160.465     761.094    -580.162
  O     -159.081     763.150    -579.483
  H     -159.787     761.049    -580.846
  H     -162.498     765.200    -580.462
  H     -160.945     765.239    -579.555
  H     -162.442     764.663    -578.741
  H     -166.892     758.565    -581.004
  H     -167.864     760.008    -580.840
  H     -166.652     759.630    -579.640

 3  4  5  6  7  8  9  10  11  12  22  25  29  30  31  32 0
 6-311+G(2d,p)
 ****
 33  36  37 0
 6-311+G(2d,p)
 ****
 1  2  13  14  15  16  17  18  19  20  21  23  24  26 0
 3-21G
 ****
 27  28  34  35  38  39  40  41  42  43  44  45  46  47  48 0
 3-21G
 ****


