%nproc=1
%NoSave
%Mem=1900MB
#P OB98/GEN NMR

erre ene a

0 1
  C      184.100      99.368       1.969
  O      182.939      98.563       1.845
  P      182.521      98.088       0.369
  C      180.925      99.019      -1.457
  O      181.652      99.280      -0.262
  C      180.073     100.222      -1.864
  O      178.917     100.294      -0.994
  C      180.807     101.561      -1.791
  O      180.357     102.368      -2.881
  C      180.310     102.166      -0.493
  O      180.418     103.588      -0.496
  C      178.871     101.626      -0.442
  N      178.331     101.624       0.914
  C      177.293     102.523       1.182
  O      176.932     103.320       0.316
  N      176.730     102.529       2.433
  C      177.232     101.782       3.366
  N      176.637     101.822       4.588
  C      178.405     100.911       3.158
  C      178.884     100.865       1.917
  O      181.436      96.949       0.654
  O      183.655      97.595      -0.470
  H      179.757     103.943      -1.130
  H      181.464      96.261      -0.038
  H      178.807     100.336       3.980
  H      179.729     100.237       1.665
  H      178.211     102.228      -1.080
  H      180.896     101.777       0.349
  H      181.895     101.453      -1.837
  H      179.701     100.048      -2.882
  H      175.843     102.438       4.710
  H      180.258      98.169      -1.289
  H      176.959     101.275       5.376
  H      181.624      98.751      -2.255
  P      181.469     103.004      -3.846
  C      183.221     104.859      -3.576
  O      182.277     104.036      -2.923
  O      180.582     104.000      -4.739
  O      182.274     102.084      -4.700
  H      181.141     104.412      -5.422
  H      183.593     105.599      -2.863
  H      182.758     105.381      -4.416
  H      184.063     104.254      -3.925
  H      184.259      99.609       2.999
  H      183.970     100.270       1.408
  H      184.947      98.833       1.594

 3  4  5  6  7  8  9  10  11  12  13  21  23  27  28  29  30  32 0
 6-311+G(2d,p)
 ****
 34  35 0
 6-311+G(2d,p)
 ****
 1  2  14  15  16  17  18  19  20  22  24  25  26 0
 3-21G
 ****
 31  33  36  37  38  39  40  41  42  43  44  45  46 0
 3-21G
 ****


