%nproc=1
%NoSave
%Mem=1900MB
#P OB98/GEN NMR

erre ene a

0 1
  C     -258.556     226.163     209.273
  O     -259.522     225.548     208.424
  P     -259.114     225.301     206.893
  C     -260.244     222.944     206.656
  O     -260.187     224.300     206.249
  C     -261.355     222.187     205.906
  O     -262.629     222.817     206.209
  C     -261.248     222.209     204.383
  O     -262.055     221.154     203.848
  C     -261.880     223.546     204.044
  O     -262.267     223.616     202.676
  C     -263.034     223.636     205.075
  N     -263.322     225.015     205.519
  C     -263.577     225.984     204.548
  O     -263.580     225.765     203.336
  N     -263.805     227.255     205.010
  C     -263.840     227.638     206.320
  O     -263.960     228.807     206.678
  C     -263.701     226.554     207.306
  C     -263.440     225.317     206.868
  O     -257.773     224.425     207.001
  O     -258.902     226.558     206.114
  H     -262.620     224.528     202.530
  H     -256.995     224.977     206.787
  H     -263.925     227.982     204.316
  H     -263.791     226.807     208.356
  H     -263.319     224.508     207.587
  H     -263.960     223.226     204.662
  H     -261.160     224.349     204.224
  H     -260.228     222.130     203.997
  H     -261.404     221.156     206.274
  H     -260.405     222.888     207.735
  H     -259.280     222.462     206.459
  P     -261.351     220.069     202.902
  C     -263.150     218.368     203.603
  O     -262.486     218.999     202.519
  O     -260.063     219.501     203.404
  O     -261.150     220.872     201.523
  H     -260.477     220.426     200.979
  H     -264.164     218.108     203.288
  H     -263.211     219.032     204.478
  H     -262.611     217.457     203.880
  H     -258.961     226.265     210.258
  H     -258.307     227.130     208.888
  H     -257.676     225.556     209.310

 3  4  5  6  7  8  9  10  11  12  13  23  28  29  30  31  32 0
 6-311+G(2d,p)
 ****
 33  34 0
 6-311+G(2d,p)
 ****
 1  2  14  15  16  17  18  19  20  21  22  24  25  26  27 0
 3-21G
 ****
 35  36  37  38  39  40  41  42  43  44  45 0
 3-21G
 ****


