%nproc=1
%NoSave
%Mem=1900MB
#P OB98/GEN NMR

erre ene a

0 1
  C      115.386    -215.707     118.258
  O      116.033    -216.978     118.190
  P      115.402    -218.146     119.094
  C      113.843    -218.952     117.181
  O      114.861    -219.294     118.112
  C      112.720    -219.989     117.207
  O      111.551    -219.550     116.484
  C      113.114    -221.324     116.589
  O      113.873    -222.080     117.516
  C      111.753    -221.937     116.284
  O      111.203    -222.595     117.444
  C      110.904    -220.713     115.907
  N      107.757    -221.377     111.988
  C      107.671    -221.848     113.284
  N      106.576    -222.580     113.585
  N      108.574    -221.621     114.201
  C      109.613    -220.873     113.761
  C      109.798    -220.325     112.511
  C      108.791    -220.587     111.503
  O      108.813    -220.175     110.351
  N      110.945    -219.575     112.456
  C      111.510    -219.776     113.633
  N      110.713    -220.502     114.483
  O      114.072    -217.478     119.680
  O      116.310    -218.612     120.183
  H      110.362    -223.022     117.198
  H      114.175    -217.318     120.638
  H      107.038    -221.589     111.318
  H      112.477    -219.397     113.927
  H      109.900    -220.772     116.344
  H      111.818    -222.700     115.503
  H      105.840    -222.792     112.928
  H      113.669    -221.160     115.658
  H      106.489    -222.927     114.532
  H      112.431    -220.137     118.257
  H      114.262    -218.886     116.175
  H      113.461    -217.955     117.429
  P      115.241    -222.738     117.001
  C      117.329    -221.265     117.460
  O      116.414    -222.218     117.960
  O      115.511    -221.978     115.617
  O      115.183    -224.216     116.802
  H      115.789    -222.623     114.940
  H      117.688    -220.650     118.289
  H      116.870    -220.614     116.708
  H      118.181    -221.785     117.011
  H      115.892    -215.015     117.618
  H      115.412    -215.347     119.265
  H      114.369    -215.807     117.942

 3  4  5  6  7  8  9  10  11  12  23  26  30  31 0
 6-311+G(2d,p)
 ****
 33  35  36  37  38 0
 6-311+G(2d,p)
 ****
 1  2  13  14  15  16  17  18  19  20  21  22  24  25 0
 3-21G
 ****
 27  28  29  32  34  39  40  41  42  43  44  45  46  47  48  49 0
 3-21G
 ****


