%nproc=1
%NoSave
%Mem=1900MB
#P OB98/GEN NMR

erre ene a

0 1
  C       56.151    1032.520    -200.235
  O       57.116    1031.634    -199.689
  H       55.854    1033.264    -199.488
  H       56.593    1033.030    -201.095
  H       55.273    1031.964    -200.572
  P       56.650    1030.759    -198.428
  C       57.403    1030.583    -195.942
  O       57.504    1031.280    -197.174
  C       58.787    1030.268    -195.388
  O       59.489    1029.376    -196.286
  C       59.691    1031.484    -195.200
  O       59.393    1032.196    -194.004
  C       61.056    1030.797    -195.135
  O       61.262    1030.250    -193.807
  C       60.910    1029.670    -196.156
  N       64.719    1028.793    -199.473
  C       64.423    1028.243    -198.267
  N       63.372    1028.507    -197.457
  C       62.577    1029.446    -198.005
  C       62.738    1030.087    -199.222
  C       63.870    1029.726    -199.980
  N       64.204    1030.337    -201.171
  N       61.713    1031.002    -199.434
  C       60.973    1030.933    -198.349
  N       61.452    1030.000    -197.463
  O       57.282    1029.316    -198.738
  O       55.174    1030.684    -198.215
  H       61.301    1031.016    -193.199
  H       56.602    1028.751    -199.152
  H       65.109    1027.481    -197.914
  H       60.093    1031.535    -198.173
  H       61.388    1028.745    -195.823
  H       61.882    1031.492    -195.326
  H       59.665    1032.138    -196.083
  H       58.649    1029.729    -194.430
  H       56.842    1029.648    -196.092
  H       65.205    1030.362    -201.355
  H       63.695    1031.204    -201.355
  H       56.840    1031.208    -195.231
  P       59.155    1033.775    -194.121
  C       60.666    1035.841    -193.756
  O       60.617    1034.457    -194.063
  O       58.518    1034.136    -192.691
  O       58.280    1034.205    -195.241
  H       57.650    1034.590    -192.832
  H       61.685    1036.169    -193.749
  H       60.230    1036.008    -192.793
  H       60.120    1036.390    -194.495

 6  7  8  9  10  11  12  13  14  15  25  28  32  33  34  35 0
 6-311+G(2d,p)
 ****
 36  39  40 0
 6-311+G(2d,p)
 ****
 1  2  3  4  5  16  17  18  19  20  21  22  23  24 0
 3-21G
 ****
 26  27  29  30  31  37  38  41  42  43  44  45  46  47  48 0
 3-21G
 ****


