%nproc=1
%NoSave
%Mem=1900MB
#P OB98/GEN NMR

erre ene a

0 1
  C     -441.472    -499.741      61.173
  O     -442.073    -498.486      61.385
  H     -442.129    -500.514      61.580
  H     -440.512    -499.800      61.693
  H     -441.333    -499.926      60.102
  P     -441.303    -497.153      60.923
  C     -442.517    -495.853      62.778
  O     -442.249    -495.935      61.382
  C     -443.333    -494.597      63.111
  O     -442.608    -493.423      62.657
  C     -444.718    -494.573      62.449
  O     -445.708    -494.205      63.416
  C     -444.596    -493.475      61.400
  O     -445.846    -492.895      61.053
  C     -443.591    -492.541      62.077
  N     -443.000    -491.595      61.140
  C     -443.261    -490.239      61.389
  O     -443.945    -489.909      62.356
  N     -442.789    -489.304      60.507
  C     -442.149    -489.689      59.442
  N     -441.729    -488.711      58.597
  C     -441.886    -491.102      59.132
  C     -442.327    -491.995      60.015
  O     -440.893    -497.138      59.490
  O     -440.058    -497.031      61.929
  H     -446.507    -493.612      60.954
  H     -439.367    -496.470      61.510
  H     -441.353    -491.375      58.225
  H     -442.173    -493.064      59.870
  H     -444.066    -491.979      62.891
  H     -444.151    -493.900      60.490
  H     -444.998    -495.529      62.006
  H     -443.410    -494.514      64.203
  H     -441.944    -487.758      58.848
  H     -441.559    -495.847      63.312
  H     -441.248    -488.889      57.726
  H     -443.092    -496.740      63.066
  P     -447.051    -495.079      63.425
  C     -448.884    -493.342      64.031
  O     -448.070    -494.417      64.476
  O     -446.599    -496.441      64.133
  O     -447.606    -495.330      62.061
  H     -446.586    -497.168      63.477
  H     -449.505    -493.008      64.836
  H     -449.498    -493.672      63.219
  H     -448.262    -492.536      63.703

 6  7  8  9  10  11  12  13  14  15  16  26  30  31  32  33  35 0
 6-311+G(2d,p)
 ****
 37  38 0
 6-311+G(2d,p)
 ****
 1  2  3  4  5  17  18  19  20  21  22  23  24  25 0
 3-21G
 ****
 27  28  29  34  36  39  40  41  42  43  44  45  46 0
 3-21G
 ****


