%nproc=1
%NoSave
%Mem=1900MB
#P OB98/GEN NMR

erre ene a

0 1
  C      858.797    -893.190     175.698
  O      859.058    -894.560     175.439
  H      859.723    -892.630     175.553
  H      858.470    -893.060     176.734
  H      858.037    -892.810     175.021
  P      857.853    -895.600     175.590
  C      857.941    -895.900     173.017
  O      857.137    -895.590     174.158
  C      857.566    -897.270     172.464
  O      856.178    -897.310     172.052
  C      858.346    -897.700     171.214
  O      859.692    -898.070     171.477
  C      857.496    -898.860     170.756
  O      857.758    -900.000     171.603
  C      856.071    -898.300     170.986
  N      855.501    -897.710     169.773
  C      855.370    -898.550     168.662
  O      855.723    -899.710     168.725
  N      854.857    -898.020     167.496
  C      854.535    -896.750     167.438
  N      854.040    -896.310     166.264
  C      854.683    -895.840     168.576
  C      855.163    -896.380     169.706
  O      856.952    -895.400     176.755
  O      858.569    -897.040     175.572
  H      857.581    -899.730     172.517
  H      857.866    -897.730     175.685
  H      854.424    -894.790     168.470
  H      855.300    -895.760     170.589
  H      855.401    -899.090     171.343
  H      857.703    -899.170     169.728
  H      858.308    -896.900     170.435
  H      857.679    -898.000     173.277
  H      853.969    -896.970     165.489
  H      858.987    -895.870     173.318
  H      853.839    -895.320     166.106
  H      857.768    -895.150     172.230
  P      860.700    -898.160     170.216
  C      861.867    -895.830     170.321
  O      860.892    -896.640     169.698
  O      859.768    -898.830     169.087
  O      861.952    -898.910     170.463
  H      859.950    -899.790     169.027
  H      861.869    -894.861     169.867
  H      862.831    -896.280     170.206
  H      861.640    -895.735     171.362

 6  7  8  9  10  11  12  13  14  15  16  26  30  31  32  33  35 0
 6-311+G(2d,p)
 ****
 37  38 0
 6-311+G(2d,p)
 ****
 1  2  3  4  5  17  18  19  20  21  22  23  24  25 0
 3-21G
 ****
 27  28  29  34  36  39  40  41  42  43  44  45  46 0
 3-21G
 ****


