%nproc=1
%NoSave
%Mem=1900MB
#P OB98/GEN NMR

erre ene a

0 1
  C     1361.517     462.246     647.859
  O     1361.254     463.521     647.306
  H     1360.588     461.667     647.856
  H     1361.860     462.361     648.886
  H     1362.264     461.708     647.272
  P     1362.483     464.398     646.767
  C     1361.712     464.374     644.312
  O     1362.731     464.011     645.228
  C     1362.240     465.273     643.183
  O     1363.481     464.721     642.671
  C     1361.270     465.363     642.010
  O     1360.290     466.378     642.133
  C     1362.217     465.675     640.847
  O     1362.440     467.089     640.697
  C     1363.517     464.976     641.261
  N     1364.625     462.672     636.816
  C     1364.332     464.002     637.050
  N     1364.290     464.810     635.964
  N     1364.089     464.486     638.248
  C     1364.064     463.547     639.223
  C     1364.322     462.194     639.096
  C     1364.671     461.692     637.796
  O     1364.957     460.519     637.524
  N     1364.156     461.536     640.307
  C     1363.729     462.469     641.118
  N     1363.721     463.710     640.536
  O     1363.752     463.734     647.500
  O     1362.410     465.867     647.065
  H     1361.570     467.516     640.568
  H     1364.439     464.424     647.652
  H     1364.838     462.365     635.893
  H     1363.440     462.324     642.160
  H     1364.398     465.592     641.068
  H     1361.797     465.320     639.900
  H     1364.395     464.479     635.027
  H     1360.788     464.402     641.816
  H     1363.887     465.741     636.079
  H     1362.474     466.263     643.599
  H     1360.940     464.903     644.877
  H     1361.239     463.466     643.888
  P     1358.741     466.033     642.221
  C     1358.302     466.628     644.751
  O     1358.396     465.651     643.732
  O     1358.646     464.615     641.471
  O     1357.802     467.041     641.653
  H     1358.340     464.747     640.556
  H     1358.063     466.153     645.680
  H     1357.534     467.331     644.502
  H     1359.237     467.139     644.842

 6  7  8  9  10  11  12  13  14  15  26  29  33  34 0
 6-311+G(2d,p)
 ****
 36  38  39  40  41 0
 6-311+G(2d,p)
 ****
 1  2  3  4  5  16  17  18  19  20  21  22  23  24  25 0
 3-21G
 ****
 27  28  30  31  32  35  37  42  43  44  45  46  47 0
 3-21G
 ****
 48  49 0
 3-21G
 ****


