%nproc=1
%NoSave
%Mem=1900MB
#P OB98/GEN NMR

erre ene a

0 1
  C      743.273     -71.460     277.600
  O      744.467     -70.775     277.933
  H      742.431     -70.994     278.117
  H      743.107     -71.382     276.520
  H      743.344     -72.517     277.869
  P      745.066     -71.011     279.402
  C      747.275     -72.050     278.510
  O      746.667     -70.996     279.251
  C      748.774     -71.806     278.342
  O      748.960     -70.652     277.469
  C      749.515     -71.510     279.661
  O      750.798     -72.139     279.605
  C      749.710     -69.997     279.626
  O      750.819     -69.564     280.398
  C      749.867     -69.750     278.123
  N      751.655     -64.998     278.516
  C      752.240     -66.202     278.686
  N      751.702     -67.428     278.504
  C      750.437     -67.331     278.054
  C      749.709     -66.173     277.838
  C      750.364     -64.966     278.107
  N      749.736     -63.730     278.013
  N      748.419     -66.494     277.425
  C      748.377     -67.813     277.426
  N      749.571     -68.367     277.804
  O      744.727     -72.557     279.672
  O      744.518     -70.127     280.472
  H      750.662     -69.779     281.335
  H      743.840     -72.633     280.053
  H      753.278     -66.176     279.011
  H      747.507     -68.418     277.191
  H      750.888     -69.965     277.766
  H      748.803     -69.510     280.011
  H      748.979     -71.837     280.559
  H      749.221     -72.659     277.832
  H      746.806     -72.108     277.519
  H      750.257     -62.926     278.321
  H      748.752     -63.693     277.804
  H      747.102     -73.002     279.033
  P      751.421     -72.680     280.987
  C      752.972     -74.462     279.871
  O      752.870     -73.297     280.683
  O      750.524     -73.971     281.302
  O      751.379     -71.678     282.103
  H      750.422     -74.078     282.270
  H      754.001     -74.737     279.770
  H      752.560     -74.260     278.904
  H      752.431     -75.264     280.329

 6  7  8  9  10  11  12  13  14  15  25  28  32  33  34  35 0
 6-311+G(2d,p)
 ****
 36  39  40 0
 6-311+G(2d,p)
 ****
 1  2  3  4  5  16  17  18  19  20  21  22  23  24 0
 3-21G
 ****
 26  27  29  30  31  37  38  41  42  43  44  45  46  47 0
 3-21G
 ****
 48 0
 3-21G
 ****


