%nproc=1
%NoSave
%Mem=1900MB
#P OB98/GEN NMR

erre ene a

0 1
  C      413.921     -10.369    -312.828
  O      412.739      -9.648    -313.124
  H      413.946     -11.287    -313.420
  H      414.782      -9.752    -313.096
  H      413.974     -10.608    -311.763
  P      411.362     -10.226    -312.539
  C      410.555      -7.958    -311.566
  O      410.328      -8.994    -312.512
  C      409.735      -6.721    -311.922
  O      410.311      -6.108    -313.115
  C      408.253      -7.009    -312.221
  O      407.464      -5.943    -311.679
  C      408.180      -6.955    -313.737
  O      406.882      -6.624    -314.213
  C      409.236      -5.896    -314.046
  N      409.489      -3.458    -318.502
  C      409.233      -3.019    -317.251
  N      409.240      -3.733    -316.103
  C      409.617      -5.003    -316.337
  C      409.918      -5.588    -317.554
  C      409.828      -4.753    -318.682
  N      410.022      -5.205    -319.972
  N      410.209      -6.929    -317.386
  C      410.060      -7.154    -316.094
  N      409.699      -6.019    -315.418
  O      411.712     -10.455    -310.991
  O      410.858     -11.471    -313.188
  H      406.313      -7.416    -314.149
  H      412.099     -11.343    -310.871
  H      408.978      -1.971    -317.155
  H      410.165      -8.112    -315.607
  H      408.859      -4.876    -313.917
  H      408.467      -7.925    -314.152
  H      407.903      -7.964    -311.819
  H      409.829      -5.991    -311.111
  H      411.619      -7.689    -311.576
  H      409.834      -4.560    -320.724
  H      410.165      -6.188    -320.126
  H      410.288      -8.313    -310.567
  P      405.875      -6.152    -311.607
  C      405.753      -5.778    -309.033
  O      405.312      -5.374    -310.327
  O      405.732      -7.695    -311.198
  O      405.169      -5.858    -312.895
  H      404.930      -8.078    -311.601
  H      405.288      -5.164    -308.290
  H      406.816      -5.672    -308.969
  H      405.486      -6.801    -308.868

 6  7  8  9  10  11  12  13  14  15  25  28  32  33  34  35 0
 6-311+G(2d,p)
 ****
 36  39  40 0
 6-311+G(2d,p)
 ****
 1  2  3  4  5  16  17  18  19  20  21  22  23  24 0
 3-21G
 ****
 26  27  29  30  31  37  38  41  42  43  44  45  46  47 0
 3-21G
 ****
 48 0
 3-21G
 ****


