%nproc=1
%NoSave
%Mem=1900MB
#P OB98/GEN NMR

erre ene a

0 1
  C      308.054    -302.587     -94.383
  O      306.916    -302.503     -95.225
  P      305.910    -303.747     -95.266
  C      305.445    -305.576     -97.073
  O      306.384    -304.685     -96.490
  C      305.510    -305.485     -98.609
  O      304.692    -304.378     -99.051
  C      306.915    -305.265     -99.184
  O      306.964    -305.947    -100.443
  C      306.970    -303.768     -99.394
  O      307.973    -303.373    -100.339
  C      305.540    -303.498     -99.824
  N      304.626    -299.005    -102.003
  C      305.103    -300.185    -102.560
  N      305.312    -300.176    -103.896
  N      305.356    -301.273    -101.877
  C      305.085    -301.135    -100.549
  C      304.650    -300.011     -99.868
  C      304.335    -298.837    -100.655
  O      303.833    -297.797    -100.218
  N      304.568    -300.231     -98.524
  C      304.890    -301.509     -98.389
  N      305.160    -302.114     -99.595
  O      304.548    -303.103     -95.793
  O      305.733    -304.496     -93.977
  H      307.867    -303.926    -101.126
  H      303.964    -302.848     -95.039
  H      304.437    -298.208    -102.588
  H      304.930    -302.054     -97.455
  H      305.364    -303.713    -100.892
  H      307.203    -303.264     -98.443
  H      305.116    -299.381    -104.493
  H      307.727    -305.635     -98.523
  H      305.637    -301.038    -104.339
  H      305.066    -306.405     -99.018
  H      304.431    -305.291     -96.754
  H      305.635    -306.597     -96.723
  P      308.186    -306.961    -100.703
  C      310.605    -306.794    -101.595
  O      309.451    -306.100    -101.168
  O      307.737    -307.716    -102.051
  O      308.428    -307.945     -99.599
  H      308.067    -308.635    -102.046
  H      311.214    -306.124    -102.233
  H      310.366    -307.694    -102.168
  H      311.208    -307.066    -100.716
  H      308.625    -301.686     -94.464
  H      308.657    -303.419     -94.681
  H      307.739    -302.720     -93.369

 3  4  5  6  7  8  9  10  11  12  23  26  30  31 0
 6-311+G(2d,p)
 ****
 33  35  36  37  38 0
 6-311+G(2d,p)
 ****
 1  2  13  14  15  16  17  18  19  20  21  22  24  25 0
 3-21G
 ****
 27  28  29  32  34  39  40  41  42  43  44  45  46  47  48  49 0
 3-21G
 ****


