%nproc=1
%NoSave
%Mem=1900MB
#P OB98/GEN NMR

erre ene a

0 1
  C     -482.489    -254.221     -60.352
  O     -483.867    -253.885     -60.475
  P     -484.272    -252.801     -61.583
  C     -486.424    -254.115     -62.186
  O     -485.870    -252.878     -61.736
  C     -487.722    -254.424     -61.446
  O     -487.428    -254.586     -60.028
  C     -488.800    -253.343     -61.571
  O     -490.073    -253.965     -61.803
  C     -488.840    -252.715     -60.187
  O     -490.103    -252.118     -59.908
  C     -488.498    -253.927     -59.320
  N     -490.135    -252.233     -54.851
  C     -490.855    -252.674     -55.947
  N     -492.201    -252.595     -55.851
  N     -490.304    -253.139     -57.037
  C     -488.952    -253.190     -56.976
  C     -488.130    -252.795     -55.945
  C     -488.750    -252.224     -54.769
  O     -488.162    -251.729     -53.808
  N     -486.806    -253.016     -56.250
  C     -486.828    -253.542     -57.463
  N     -488.105    -253.621     -57.964
  O     -483.728    -253.457     -62.939
  O     -483.706    -251.435     -61.383
  H     -490.097    -251.849     -58.971
  H     -483.118    -252.837     -63.392
  H     -490.610    -251.865     -54.044
  H     -485.956    -253.848     -58.024
  H     -489.352    -254.614     -59.274
  H     -488.068    -251.939     -60.125
  H     -492.692    -252.277     -55.030
  H     -488.605    -252.602     -62.360
  H     -492.749    -252.933     -56.636
  H     -488.102    -255.393     -61.802
  H     -485.698    -254.917     -62.002
  H     -486.610    -254.043     -63.265
  P     -491.155    -253.090     -62.617
  C     -491.996    -255.415     -63.437
  O     -492.325    -254.102     -63.021
  O     -490.408    -252.792     -64.009
  O     -491.569    -251.837     -61.914
  H     -490.765    -251.983     -64.416
  H     -490.930    -255.644     -63.281
  H     -492.222    -255.517     -64.498
  H     -492.600    -256.127     -62.869
  H     -482.367    -254.951     -59.579
  H     -481.929    -253.344     -60.105
  H     -482.135    -254.621     -61.279

 3  4  5  6  7  8  9  10  11  12  23  26  30  31  33  0
 6-311+G(2d,p)
 ****
 35  36  37  38 0
 6-311+G(2d,p)
 ****
 1  2  13  14  15  16  17  18  19  20  21  22  24  25  27  28  29 0
 3-21G
 ****
 32  34  39  40  41  42  43  44  45  46  47  48  49 0
 3-21G
 ****


