%nproc=1
%NoSave
%Mem=1900MB
#P OB98/GEN NMR

erre ene a

0 1
  C     -108.740      58.965      14.485
  O     -109.121      57.701      14.985
  H     -108.896      58.975      13.402
  H     -107.680      59.139      14.684
  H     -109.340      59.764      14.932
  P     -109.262      57.500      16.569
  C     -111.127      59.028      17.492
  O     -110.807      57.769      16.915
  C     -112.645      59.178      17.611
  O     -113.269      58.370      16.565
  C     -113.205      58.704      18.967
  O     -114.326      59.526      19.311
  C     -113.675      57.304      18.626
  O     -114.612      56.821      19.555
  C     -114.224      57.511      17.217
  N     -114.401      56.240      16.517
  C     -115.689      55.724      16.473
  O     -116.662      56.268      16.992
  N     -115.825      54.502      15.869
  C     -114.805      53.717      15.417
  O     -114.973      52.600      14.956
  C     -113.454      54.295      15.539
  C     -113.316      55.513      16.068
  O     -108.293      58.260      17.412
  O     -109.142      55.917      16.779
  H     -115.044      56.018      19.205
  H     -108.886      55.715      17.699
  H     -116.756      54.118      15.820
  H     -112.619      53.695      15.204
  H     -112.335      55.962      16.190
  H     -115.182      58.042      17.245
  H     -112.823      56.613      18.621
  H     -112.465      58.727      19.768
  H     -112.919      60.221      17.412
  H     -110.724      59.815      16.844
  H     -110.662      59.106      18.479
  P     -114.303      60.504      20.583
  C     -112.576      62.396      20.420
  O     -113.915      62.001      20.139
  O     -113.506      59.985      21.739
  O     -115.844      60.634      21.007
  H     -115.922      60.532      21.974
  H     -112.423      63.401      20.087
  H     -111.897      61.745      19.910
  H     -112.401      62.339      21.474

 6  7  8  9  10  11  12  13  14  15  16  26  31  32  33  34  35 0
 6-311+G(2d,p)
 ****
 36  37 0
 6-311+G(2d,p)
 ****
 1  2  3  4  5  17  18  19  20  21  22  23  24  25 0
 3-21G
 ****
 27  28  29  30  38  39  40  41  42  43  44  45 0
 3-21G
 ****


