%nproc=1
%NoSave
%Mem=1900MB
#P OB98/GEN NMR

erre ene a

0 1
  C      -82.025    -890.472     307.687
  O      -81.930    -891.882     307.742
  H      -81.472    -890.062     308.539
  H      -83.068    -890.152     307.764
  H      -81.577    -890.092     306.764
  P      -82.668    -892.742     306.597
  C      -85.094    -893.652     306.365
  O      -84.212    -892.772     307.056
  C      -85.768    -894.592     307.357
  O      -86.418    -893.872     308.412
  C      -86.862    -895.472     306.749
  O      -86.369    -896.522     305.931
  C      -87.507    -895.982     308.027
  O      -86.681    -897.012     308.615
  C      -87.521    -894.712     308.880
  N      -88.788    -893.962     308.795
  C      -89.780    -894.302     309.727
  O      -89.570    -895.182     310.568
  N      -90.998    -893.652     309.672
  C      -91.206    -892.772     308.752
  N      -92.433    -892.162     308.728
  C      -90.197    -892.402     307.729
  C      -89.021    -893.032     307.817
  O      -82.064    -894.072     306.285
  O      -82.727    -891.752     305.339
  H      -87.009    -897.142     309.527
  H      -83.171    -892.242     304.593
  H      -90.439    -891.672     306.961
  H      -88.242    -892.812     307.096
  H      -87.322    -894.942     309.939
  H      -88.496    -896.412     307.855
  H      -87.590    -894.862     306.206
  H      -84.970    -895.212     307.815
  H      -93.100    -892.442     309.440
  H      -84.505    -894.202     305.623
  H      -92.713    -891.512     307.999
  H      -85.861    -893.062     305.856
  P      -87.466    -897.442     305.200
  C      -89.048    -899.372     305.992
  O      -88.009    -898.472     306.326
  O      -86.577    -898.372     304.238
  O      -88.543    -896.702     304.473
  H      -86.589    -898.012     303.327
  H      -89.284    -899.975     306.843
  H      -88.730    -900.000     305.186
  H      -89.915    -898.820     305.694

 6  7  8  9  10  11  12  13  14  15  16  26  30  31  32  33  35 0
 6-311+G(2d,p)
 ****
 37  38 0
 6-311+G(2d,p)
 ****
 1  2  3  4  5  17  18  19  20  21  22  23  24  25 0
 3-21G
 ****
 27  28  29  34  36  39  40  41  42  43  44  45  46 0
 3-21G
 ****


