%nproc=1
%NoSave
%Mem=1900MB
#P OB98/GEN NMR

erre ene a

0 1
  C      -31.191    -162.490      38.736
  O      -31.494    -163.865      38.672
  H      -31.941    -161.943      38.157
  H      -30.210    -162.293      38.296
  H      -31.218    -162.135      39.768
  P      -30.524    -164.917      39.402
  C      -31.595    -164.602      41.713
  O      -31.384    -165.502      40.633
  C      -32.300    -165.298      42.878
  O      -32.225    -164.459      44.063
  C      -33.786    -165.592      42.615
  O      -34.088    -166.936      42.992
  C      -34.509    -164.627      43.542
  O      -35.822    -165.064      43.886
  C      -33.511    -164.537      44.701
  N      -33.776    -163.394      45.564
  C      -33.960    -163.673      46.921
  O      -33.889    -164.833      47.330
  N      -34.273    -162.646      47.773
  C      -34.436    -161.450      47.302
  N      -34.775    -160.481      48.194
  C      -34.278    -161.113      45.871
  C      -33.947    -162.123      45.067
  O      -29.183    -164.379      39.769
  O      -30.449    -166.166      38.404
  H      -36.273    -164.340      44.375
  H      -29.629    -166.678      38.595
  H      -34.431    -160.100      45.529
  H      -33.811    -161.973      44.001
  H      -33.535    -165.449      45.311
  H      -34.598    -163.649      43.050
  H      -34.076    -165.440      41.575
  H      -31.752    -166.217      43.117
  H      -34.879    -160.756      49.164
  H      -32.193    -163.757      41.353
  H      -34.951    -159.521      47.943
  H      -30.622    -164.235      42.054
  P      -34.549    -167.918      41.809
  C      -32.152    -168.763      41.281
  O      -33.468    -169.099      41.697
  O      -34.307    -167.044      40.490
  O      -35.970    -168.360      41.923
  H      -35.165    -166.793      40.098
  H      -31.550    -169.647      41.254
  H      -31.728    -168.063      41.970
  H      -32.187    -168.326      40.305

 6  7  8  9  10  11  12  13  14  15  16  26  30  31  32  33  35 0
 6-311+G(2d,p)
 ****
 37  38 0
 6-311+G(2d,p)
 ****
 1  2  3  4  5  17  18  19  20  21  22  23  24  25 0
 3-21G
 ****
 27  28  29  34  36  39  40  41  42  43  44  45  46 0
 3-21G
 ****


