%nproc=1
%NoSave
%Mem=1900MB
#P OB98/GEN NMR

erre ene a

0 1
  C      156.303      50.612     445.309
  O      157.017      49.769     446.187
  P      158.414      49.113     445.758
  C      159.915      50.670     447.159
  O      159.518      50.279     445.848
  C      161.413      50.412     447.359
  O      161.670      48.986     447.165
  C      162.294      51.191     446.363
  O      163.330      51.964     446.969
  C      162.763      50.103     445.409
  O      163.933      50.437     444.689
  C      162.846      48.889     446.340
  N      162.911      47.626     445.609
  C      163.888      47.512     444.625
  O      164.698      48.391     444.344
  N      163.880      46.350     443.905
  C      162.943      45.365     443.986
  O      162.940      44.395     443.240
  C      161.910      45.558     445.016
  C      161.952      46.649     445.784
  O      158.404      48.377     444.462
  O      158.789      48.204     447.023
  H      163.799      51.316     444.287
  H      158.880      48.687     447.862
  H      164.584      46.255     443.188
  H      161.148      44.798     445.097
  H      161.204      46.819     446.552
  H      163.712      48.950     446.998
  H      161.969      49.942     444.671
  H      161.703      51.929     445.809
  H      161.660      50.672     448.392
  H      159.351      50.087     447.887
  H      159.671      51.727     447.319
  P      163.643      53.499     446.642
  C      162.616      55.067     448.444
  O      162.443      54.386     447.219
  O      164.015      53.784     445.225
  O      164.857      53.850     447.626
  H      165.410      54.545     447.225
  H      161.640      55.176     448.924
  H      163.023      56.062     448.247
  H      163.285      54.522     449.116
  H      155.403      50.942     445.785
  H      156.058      50.073     444.418
  H      156.906      51.460     445.059

 3  4  5  6  7  8  9  10  11  12  13  23  28  29  30  31  32 0
 6-311+G(2d,p)
 ****
 33  34 0
 6-311+G(2d,p)
 ****
 1  2  14  15  16  17  18  19  20  21  22  24  25  26  27 0
 3-21G
 ****
 35  36  37  38  39  40  41  42  43  44  45 0
 3-21G
 ****


