%nproc=1
%NoSave
%Mem=1900MB
#P OB98/GEN NMR

erre ene a

0 1
  C     -510.435     198.848    -603.536
  O     -509.505     197.781    -603.417
  P     -510.019     196.281    -603.238
  C     -508.691     195.045    -605.054
  O     -509.965     195.547    -604.661
  C     -508.366     195.483    -606.481
  O     -508.036     196.889    -606.519
  C     -507.150     194.780    -607.087
  O     -507.430     193.442    -607.427
  C     -506.840     195.696    -608.263
  O     -507.700     195.412    -609.373
  C     -507.172     197.090    -607.666
  N     -505.972     197.842    -607.307
  C     -506.032     199.225    -607.502
  O     -507.018     199.744    -608.033
  N     -504.965     199.985    -607.102
  C     -503.890     199.416    -606.667
  N     -502.889     200.222    -606.225
  C     -503.731     197.944    -606.592
  C     -504.814     197.227    -606.904
  O     -511.319     196.137    -602.505
  O     -508.833     195.564    -602.429
  H     -509.216     195.090    -601.658
  H     -507.546     196.116    -610.033
  H     -502.785     197.513    -606.282
  H     -504.790     196.145    -606.859
  H     -507.755     197.680    -608.385
  H     -505.811     195.592    -608.616
  H     -506.320     194.820    -606.372
  H     -509.250     195.318    -607.106
  H     -503.035     201.223    -606.273
  H     -508.713     193.955    -605.000
  H     -502.165     199.900    -605.576
  H     -507.922     195.408    -604.358
  P     -506.487     192.313    -606.768
  C     -508.247     190.744    -605.706
  O     -507.256     191.725    -605.497
  O     -505.280     193.157    -606.139
  O     -505.976     191.293    -607.742
  H     -504.450     192.668    -606.232
  H     -508.420     190.199    -604.775
  H     -507.948     190.022    -606.485
  H     -509.184     191.227    -606.014
  H     -509.906     199.771    -603.648
  H     -511.044     198.890    -602.657
  H     -511.055     198.687    -604.393

 3  4  5  6  7  8  9  10  11  12  13  24  27  28  29  30  32 0
 6-311+G(2d,p)
 ****
 34  35 0
 6-311+G(2d,p)
 ****
 1  2  14  15  16  17  18  19  20  21  22  23  25  26 0
 3-21G
 ****
 31  33  36  37  38  39  40  41  42  43  44  45  46 0
 3-21G
 ****


