%nproc=1
%NoSave
%Mem=1900MB
#P OB98/GEN NMR

erre ene a

0 1
  C      -11.588      28.952      -0.719
  O      -12.432      29.333       0.348
  H      -11.716      29.662      -1.541
  H      -11.851      27.952      -1.074
  H      -10.543      28.967      -0.398
  P      -12.465      28.348       1.616
  C      -10.527      27.401       3.085
  O      -10.916      27.994       1.856
  C       -9.213      26.649       2.901
  O       -9.412      25.466       2.097
  C       -8.133      27.451       2.184
  O       -7.487      28.388       3.030
  C       -7.199      26.332       1.762
  O       -6.438      25.884       2.899
  C       -8.209      25.254       1.310
  N       -8.514      25.315      -0.120
  C       -7.444      25.111      -0.999
  O       -6.311      24.903      -0.570
  N       -7.677      25.181      -2.352
  C       -8.874      25.422      -2.791
  N       -9.044      25.494      -4.138
  C      -10.031      25.626      -1.900
  C       -9.783      25.561      -0.595
  O      -13.044      26.981       1.017
  O      -13.190      28.850       2.818
  H       -5.674      25.388       2.550
  H      -12.987      26.268       1.697
  H      -11.007      25.836      -2.313
  H      -10.586      25.704       0.120
  H       -7.840      24.248       1.545
  H       -6.484      26.637       0.996
  H       -8.522      27.940       1.285
  H       -8.873      26.318       3.891
  H       -8.221      25.411      -4.721
  H      -11.317      26.712       3.401
  H       -9.890      25.852      -4.562
  H      -10.400      28.173       3.850
  P       -6.758      29.639       2.336
  C       -7.460      31.403       0.565
  O       -7.704      30.125       1.135
  O       -5.523      28.962       1.579
  O       -6.317      30.715       3.279
  H       -4.726      29.522       1.634
  H       -8.166      31.585      -0.218
  H       -6.468      31.431       0.165
  H       -7.562      32.155       1.319

 6  7  8  9  10  11  12  13  14  15  16  26  30  31  32  33  35 0
 6-311+G(2d,p)
 ****
 37  38 0
 6-311+G(2d,p)
 ****
 1  2  3  4  5  17  18  19  20  21  22  23  24  25 0
 3-21G
 ****
 27  28  29  34  36  39  40  41  42  43  44  45  46 0
 3-21G
 ****


