%nproc=1
%NoSave
%Mem=1900MB
#P OB98/GEN NMR

erre ene a

0 1
  C      204.547     835.843      98.864
  O      204.340     836.199     100.214
  P      204.598     837.703     100.700
  C      206.014     836.539     102.516
  O      205.186     837.654     102.197
  C      206.429     836.587     103.991
  O      207.048     837.857     104.315
  C      205.275     836.443     104.957
  O      204.775     835.119     105.009
  C      205.917     836.949     106.245
  O      206.714     835.913     106.857
  C      206.828     838.078     105.720
  N      206.270     839.398     105.983
  C      205.764     839.598     107.271
  O      205.722     838.679     108.080
  N      205.308     840.852     107.608
  C      205.249     841.778     106.699
  N      204.850     843.026     107.097
  C      205.622     841.555     105.288
  C      206.148     840.359     105.004
  O      203.457     838.644     100.505
  O      205.878     838.172      99.841
  H      205.683     839.033      99.433
  H      206.144     835.108     106.916
  H      205.502     842.350     104.545
  H      206.473     840.107     104.003
  H      207.819     838.011     106.181
  H      205.176     837.262     106.986
  H      204.461     837.129     104.671
  H      207.171     835.793     104.154
  H      204.601     843.142     108.069
  H      206.910     836.573     101.878
  H      205.071     843.860     106.573
  H      205.468     835.611     102.303
  P      203.182     834.941     105.188
  C      203.655     832.931     106.755
  O      202.919     833.440     105.651
  O      202.643     834.994     103.679
  O      202.527     835.989     106.036
  H      201.773     835.445     103.650
  H      203.113     832.063     107.151
  H      203.742     833.682     107.547
  H      204.640     832.621     106.422
  H      204.325     834.805      98.731
  H      205.567     836.026      98.599
  H      203.906     836.428      98.238

 3  4  5  6  7  8  9  10  11  12  13  24  27  28  29  30  32 0
 6-311+G(2d,p)
 ****
 34  35 0
 6-311+G(2d,p)
 ****
 1  2  14  15  16  17  18  19  20  21  22  23  25  26 0
 3-21G
 ****
 31  33  36  37  38  39  40  41  42  43  44  45  46 0
 3-21G
 ****


