%nproc=1
%NoSave
%Mem=1900MB
#P OB98/GEN NMR

erre ene a

0 1
  C     -164.046     -22.576      48.243
  O     -164.349     -23.479      49.305
  P     -163.190     -23.851      50.347
  C     -160.833     -25.055      50.237
  O     -162.039     -24.679      49.609
  C     -159.770     -25.351      49.163
  O     -160.041     -26.619      48.524
  C     -159.722     -24.295      48.057
  O     -158.883     -23.207      48.398
  C     -159.218     -25.106      46.874
  O     -157.796     -25.308      46.977
  C     -159.972     -26.442      47.078
  N     -161.337     -26.563      46.523
  C     -161.531     -26.504      45.143
  O     -160.629     -26.348      44.324
  N     -162.826     -26.643      44.711
  C     -163.901     -26.998      45.476
  O     -165.028     -27.167      45.026
  C     -163.616     -27.194      46.903
  C     -162.380     -26.961      47.353
  O     -163.876     -24.926      51.310
  O     -162.646     -22.681      51.110
  H     -157.524     -25.839      46.207
  H     -163.943     -24.576      52.218
  H     -162.997     -26.531      43.721
  H     -164.427     -27.523      47.540
  H     -162.157     -27.104      48.409
  H     -159.389     -27.277      46.673
  H     -159.383     -24.577      45.937
  H     -160.735     -23.951      47.820
  H     -158.791     -25.421      49.652
  H     -160.979     -25.937      50.868
  H     -160.493     -24.247      50.893
  P     -159.491     -21.728      48.478
  C     -160.068     -19.896      46.772
  O     -159.522     -21.191      46.963
  O     -158.862     -20.813      49.477
  O     -161.048     -21.977      48.787
  H     -161.227     -21.906      49.753
  H     -159.885     -19.589      45.739
  H     -159.594     -19.177      47.447
  H     -161.146     -19.919      46.951
  H     -164.917     -22.431      47.639
  H     -163.259     -22.983      47.642
  H     -163.734     -21.637      48.651

 3  4  5  6  7  8  9  10  11  12  13  23  28  29  30  31  32 0
 6-311+G(2d,p)
 ****
 33  34 0
 6-311+G(2d,p)
 ****
 1  2  14  15  16  17  18  19  20  21  22  24  25  26  27 0
 3-21G
 ****
 35  36  37  38  39  40  41  42  43  44  45 0
 3-21G
 ****


