%nproc=1
%NoSave
%Mem=1900MB
#P OB98/GEN NMR

erre ene a

0 1
  C     -190.777     750.669     473.903
  O     -190.473     751.746     473.037
  H     -190.631     749.720     473.379
  H     -190.088     750.702     474.756
  H     -191.802     750.742     474.265
  P     -191.536     752.073     471.873
  C     -190.020     750.805     470.184
  O     -191.322     750.953     470.729
  C     -190.104     750.545     468.676
  O     -190.924     749.369     468.451
  C     -190.707     751.715     467.863
  O     -189.990     751.830     466.629
  C     -192.120     751.237     467.581
  O     -192.676     751.844     466.412
  C     -191.910     749.741     467.456
  N     -196.475     748.802     465.427
  C     -195.344     749.309     464.895
  N     -194.153     749.472     465.494
  C     -194.172     748.983     466.758
  C     -195.256     748.435     467.431
  C     -196.465     748.368     466.718
  N     -197.633     747.910     467.265
  N     -194.891     748.114     468.731
  C     -193.633     748.472     468.843
  N     -193.157     749.015     467.666
  O     -190.919     753.398     471.213
  O     -192.940     752.272     472.323
  H     -193.623     751.583     466.353
  H     -191.252     754.181     471.686
  H     -195.409     749.639     463.860
  H     -193.034     748.416     469.725
  H     -191.525     749.432     466.468
  H     -192.769     751.474     468.435
  H     -190.691     752.674     468.398
  H     -189.095     750.303     468.315
  H     -189.524     749.946     470.668
  H     -198.483     748.000     466.713
  H     -197.663     747.693     468.247
  H     -189.434     751.707     470.388
  P     -188.858     752.965     466.537
  C     -190.303     754.903     465.577
  O     -189.560     754.404     466.669
  O     -188.422     752.908     464.995
  O     -187.693     752.736     467.449
  H     -187.468     753.129     464.906
  H     -190.701     755.864     465.826
  H     -191.106     754.231     465.355
  H     -189.665     754.992     464.722

 6  7  8  9  10  11  12  13  14  15  25  28  32  33  34  35 0
 6-311+G(2d,p)
 ****
 36  39  40 0
 6-311+G(2d,p)
 ****
 1  2  3  4  5  16  17  18  19  20  21  22  23  24 0
 3-21G
 ****
 26  27  29  30  31  37  38  41  42  43  44  45  46  47 0
 3-21G
 ****
 48 0
 3-21G
 ****


