%nproc=1
%NoSave
%Mem=1900MB
#P OB98/GEN NMR

erre ene a

0 1
  C     -631.706     -15.174    -211.894
  O     -632.916     -15.893    -211.745
  H     -631.931     -14.105    -211.891
  H     -631.236     -15.433    -212.848
  H     -631.025     -15.399    -211.070
  P     -632.798     -17.479    -211.554
  C     -634.311     -17.787    -213.679
  O     -634.040     -18.143    -212.330
  C     -635.652     -18.376    -214.117
  O     -635.605     -19.811    -214.143
  C     -636.801     -18.065    -213.166
  O     -637.200     -16.713    -213.220
  C     -637.847     -19.041    -213.674
  O     -638.487     -18.546    -214.858
  C     -636.977     -20.282    -214.000
  N     -637.089     -21.327    -212.995
  C     -638.076     -22.292    -213.228
  O     -638.777     -22.230    -214.236
  N     -638.263     -23.277    -212.291
  C     -637.515     -23.315    -211.229
  N     -637.756     -24.314    -210.339
  C     -636.446     -22.337    -210.961
  C     -636.296     -21.373    -211.867
  O     -633.197     -17.674    -210.018
  O     -631.480     -18.067    -211.933
  H     -639.051     -17.801    -214.576
  H     -634.044     -17.271    -209.777
  H     -635.842     -22.411    -210.068
  H     -635.537     -20.615    -211.746
  H     -637.264     -20.710    -214.971
  H     -638.630     -19.220    -212.935
  H     -636.529     -18.361    -212.143
  H     -635.864     -18.019    -215.133
  H     -638.513     -24.959    -210.550
  H     -633.506     -18.122    -214.342
  H     -637.264     -24.425    -209.467
  H     -634.347     -16.692    -213.731
  P     -637.231     -15.821    -211.883
  C     -639.676     -15.015    -211.981
  O     -638.311     -14.657    -212.148
  O     -635.904     -15.339    -211.408
  O     -637.999     -16.755    -210.833
  H     -638.905     -17.008    -211.095
  H     -640.295     -14.166    -212.183
  H     -639.838     -15.344    -210.976
  H     -639.923     -15.805    -212.659

 6  7  8  9  10  11  12  13  14  15  16  26  30  31  32  33  35 0
 6-311+G(2d,p)
 ****
 37  38 0
 6-311+G(2d,p)
 ****
 1  2  3  4  5  17  18  19  20  21  22  23  24  25 0
 3-21G
 ****
 27  28  29  34  36  39  40  41  42  43  44  45  46 0
 3-21G
 ****


