%nproc=1
%NoSave
%Mem=1900MB
#P OB98/GEN NMR

erre ene a

0 1
  C      429.413     -10.022     337.957
  O      430.644     -10.176     337.267
  P      432.036      -9.714     337.925
  C      433.423     -11.891     338.100
  O      432.553     -10.984     338.755
  C      434.362     -12.553     339.109
  O      435.249     -11.540     339.654
  C      433.647     -13.230     340.289
  O      434.415     -14.389     340.639
  C      433.737     -12.184     341.381
  O      433.598     -12.734     342.684
  C      435.114     -11.577     341.087
  N      435.270     -10.241     341.662
  C      436.489      -9.942     342.279
  O      437.383     -10.783     342.359
  N      436.666      -8.685     342.800
  C      435.689      -7.830     342.782
  N      435.934      -6.580     343.259
  C      434.353      -8.144     342.237
  C      434.228      -9.347     341.681
  O      431.973      -8.446     338.700
  O      433.058      -9.680     336.697
  H      434.334     -13.356     342.834
  H      433.033      -8.824     336.201
  H      433.560      -7.410     342.273
  H      433.293      -9.655     341.232
  H      435.906     -12.234     341.462
  H      432.943     -11.440     341.244
  H      432.625     -13.530     340.047
  H      434.988     -13.279     338.571
  H      436.900      -6.353     343.459
  H      434.021     -11.333     337.374
  H      435.353      -5.793     342.984
  H      432.836     -12.644     337.558
  P      433.654     -15.623     341.328
  C      434.253     -17.783     340.024
  O      433.345     -16.714     340.195
  O      432.192     -14.999     341.589
  O      434.228     -16.124     342.615
  H      431.778     -15.467     342.333
  H      433.887     -18.428     339.221
  H      434.324     -18.377     340.939
  H      435.240     -17.405     339.744
  H      428.614     -10.390     337.348
  H      429.251      -8.986     338.171
  H      429.446     -10.574     338.873

 3  4  5  6  7  8  9  10  11  12  13  23  27  28  29  30  32 0
 6-311+G(2d,p)
 ****
 34  35 0
 6-311+G(2d,p)
 ****
 1  2  14  15  16  17  18  19  20  21  22  24  25  26 0
 3-21G
 ****
 31  33  36  37  38  39  40  41  42  43  44  45  46 0
 3-21G
 ****


