%nproc=1
%NoSave
%Mem=1900MB
#P OB98/GEN NMR

erre ene a

0 1
  C     -114.094     -48.059     -30.500
  O     -113.096     -47.049     -30.636
  P     -112.244     -46.985     -31.991
  C     -111.540     -44.516     -31.759
  O     -111.103     -45.870     -31.815
  C     -110.756     -43.735     -30.704
  O     -110.837     -44.359     -29.407
  C     -109.268     -43.640     -31.007
  O     -109.024     -42.711     -32.054
  C     -108.709     -43.250     -29.651
  O     -108.835     -41.835     -29.427
  C     -109.635     -44.021     -28.684
  N     -109.010     -45.203     -28.111
  C     -108.252     -44.997     -26.952
  O     -108.110     -43.861     -26.498
  N     -107.660     -46.082     -26.351
  C     -107.811     -47.264     -26.864
  N     -107.205     -48.300     -26.222
  C     -108.590     -47.523     -28.088
  C     -109.151     -46.456     -28.659
  O     -113.039     -46.886     -33.251
  O     -111.400     -48.351     -31.945
  H     -109.772     -41.620     -29.599
  H     -111.235     -48.648     -32.861
  H     -108.689     -48.529     -28.475
  H     -109.737     -46.557     -29.562
  H     -109.943     -43.372     -27.853
  H     -107.646     -43.497     -29.563
  H     -108.885     -44.629     -31.296
  H     -111.188     -42.727     -30.634
  H     -106.665     -48.094     -25.392
  H     -112.607     -44.489     -31.525
  H     -107.302     -49.261     -26.516
  H     -111.425     -44.066     -32.753
  P     -108.746     -43.298     -33.520
  C     -110.589     -41.851     -34.631
  O     -109.217     -42.197     -34.585
  O     -109.851     -44.452     -33.663
  O     -107.369     -43.844     -33.726
  H     -109.493     -45.182     -34.197
  H     -110.689     -40.898     -35.160
  H     -111.004     -41.740     -33.627
  H     -111.143     -42.617     -35.175
  H     -114.568     -47.966     -29.545
  H     -113.638     -49.024     -30.579
  H     -114.824     -47.945     -31.274

 3  4  5  6  7  8  9  10  11  12  13  23  27  28  29  30  32 0
 6-311+G(2d,p)
 ****
 34  35 0
 6-311+G(2d,p)
 ****
 1  2  14  15  16  17  18  19  20  21  22  24  25  26 0
 3-21G
 ****
 31  33  36  37  38  39  40  41  42  43  44  45  46 0
 3-21G
 ****


