%nproc=1
%NoSave
%Mem=1900MB
#P OB98/GEN NMR

erre ene a

0 1
  C       86.817     231.093     -15.405
  O       88.004     230.655     -16.087
  P       87.908     230.237     -17.637
  C       89.978     228.662     -17.364
  O       89.337     229.686     -18.110
  C       91.394     228.428     -17.898
  O       91.359     228.141     -19.315
  C       92.324     229.623     -17.756
  O       92.795     229.774     -16.428
  C       93.423     229.269     -18.753
  O       94.378     228.369     -18.167
  C       92.624     228.567     -19.869
  N       92.436     229.414     -21.044
  C       93.555     229.618     -21.846
  O       94.667     229.175     -21.572
  N       93.355     230.386     -22.960
  C       92.191     231.010     -23.309
  O       92.082     231.702     -24.314
  C       91.067     230.822     -22.380
  C       91.240     230.051     -21.306
  O       87.850     231.669     -18.363
  O       86.726     229.407     -18.013
  H       93.871     227.600     -17.839
  H       87.366     231.586     -19.206
  H       94.145     230.523     -23.571
  H       90.131     231.320     -22.609
  H       90.418     229.901     -20.612
  H       93.140     227.649     -20.180
  H       93.979     230.149     -19.091
  H       91.816     230.534     -18.094
  H       91.812     227.551     -17.384
  H       89.403     227.735     -17.455
  H       90.006     228.954     -16.311
  P       93.163     231.267     -15.960
  C       94.913     230.847     -14.065
  O       93.579     231.135     -14.419
  O       91.712     231.945     -15.943
  O       94.153     231.936     -16.856
  H       91.015     231.314     -15.688
  H       95.622     231.288     -14.774
  H       95.057     229.764     -14.039
  H       95.112     231.256     -13.071
  H       87.056     231.330     -14.389
  H       86.085     230.313     -15.426
  H       86.426     231.962     -15.892

 3  4  5  6  7  8  9  10  11  12  13  23  28  29  30  31  32 0
 6-311+G(2d,p)
 ****
 33  34 0
 6-311+G(2d,p)
 ****
 1  2  14  15  16  17  18  19  20  21  22  24  25  26 0
 3-21G
 ****
 27  35  36  37  38  39  40  41  42  43  44  45 0
 3-21G
 ****


