%nproc=1
%NoSave
%Mem=1900MB
#P OB98/GEN NMR

erre ene a

0 1
  C      -61.637    -899.220    -113.592
  O      -61.865    -897.960    -114.262
  P      -61.384    -897.840    -115.784
  C      -59.028    -897.060    -114.913
  O      -59.778    -897.950    -115.729
  C      -57.590    -896.960    -115.417
  O      -57.557    -896.650    -116.832
  C      -56.756    -895.890    -114.746
  O      -56.377    -896.260    -113.433
  C      -55.609    -895.750    -115.719
  O      -54.648    -896.790    -115.514
  C      -56.320    -895.950    -117.085
  N      -56.530    -894.710    -117.810
  C      -55.399    -894.150    -118.398
  O      -54.273    -894.660    -118.316
  N      -55.595    -892.990    -119.087
  C      -56.777    -892.320    -119.224
  O      -56.902    -891.300    -119.861
  C      -57.924    -892.940    -118.528
  C      -57.755    -894.080    -117.877
  O      -61.670    -896.290    -116.076
  O      -62.069    -898.800    -116.690
  H      -61.510    -895.720    -115.304
  H      -54.462    -896.810    -114.558
  H      -54.786    -892.570    -119.541
  H      -58.874    -892.410    -118.590
  H      -58.584    -894.540    -117.349
  H      -55.719    -896.630    -117.722
  H      -55.091    -894.790    -115.627
  H      -57.320    -894.950    -114.707
  H      -57.123    -897.950    -115.272
  H      -59.033    -897.420    -113.882
  H      -59.517    -896.070    -114.918
  P      -57.182    -895.570    -112.215
  C      -55.489    -893.600    -112.008
  O      -56.813    -894.010    -112.261
  O      -56.382    -896.150    -110.948
  O      -58.645    -895.880    -112.207
  H      -55.412    -896.110    -111.081
  H      -55.359    -892.590    -112.417
  H      -54.759    -894.260    -112.471
  H      -55.316    -893.570    -110.925
  H      -62.004    -899.162    -112.589
  H      -60.588    -899.431    -113.576
  H      -62.150    -900.000    -114.115

 3  4  5  6  7  8  9  10  11  12  13  24  28  29  30  31  32 0
 6-311+G(2d,p)
 ****
 33  34 0
 6-311+G(2d,p)
 ****
 1  2  14  15  16  17  18  19  20  21  22  23  25  26  27 0
 3-21G
 ****
 35  36  37  38  39  40  41  42  43  44  45 0
 3-21G
 ****


