%nproc=1
%NoSave
%Mem=1900MB
#P OB98/GEN NMR

erre ene a

0 1
  C     -110.568    -134.105     -89.820
  O     -110.159    -134.081     -88.466
  H     -110.726    -133.076     -90.157
  H     -111.507    -134.655     -89.929
  H     -109.794    -134.563     -90.443
  P     -109.939    -135.475     -87.709
  C     -112.421    -135.695     -87.010
  O     -111.344    -136.245     -87.762
  C     -113.687    -136.531     -87.193
  O     -114.007    -136.654     -88.593
  C     -113.574    -137.957     -86.664
  O     -113.650    -137.973     -85.252
  C     -114.737    -138.614     -87.389
  O     -115.986    -138.297     -86.754
  C     -114.646    -137.940     -88.780
  N     -113.925    -138.739     -89.769
  C     -114.540    -139.936     -90.159
  O     -115.619    -140.270     -89.665
  N     -113.901    -140.725     -91.086
  C     -112.781    -140.339     -91.608
  N     -112.203    -141.166     -92.523
  C     -112.117    -139.071     -91.248
  C     -112.731    -138.333     -90.325
  O     -109.327    -135.397     -86.343
  O     -109.025    -136.321     -88.717
  H     -116.684    -138.511     -87.406
  H     -108.081    -136.219     -88.490
  H     -111.187    -138.784     -91.717
  H     -112.311    -137.385     -90.004
  H     -115.652    -137.738     -89.176
  H     -114.654    -139.703     -87.405
  H     -112.642    -138.419     -87.013
  H     -114.517    -135.995     -86.711
  H     -112.706    -142.017     -92.751
  H     -112.585    -134.675     -87.379
  H     -111.424    -140.897     -93.107
  H     -112.160    -135.636     -85.946
  P     -112.506    -138.655     -84.359
  C     -113.898    -140.812     -84.515
  O     -112.609    -140.233     -84.648
  O     -112.520    -138.280     -82.915
  O     -111.149    -138.255     -85.110
  H     -110.910    -137.316     -84.909
  H     -113.843    -141.859     -84.730
  H     -114.572    -140.342     -85.200
  H     -114.250    -140.672     -83.515

 6  7  8  9  10  11  12  13  14  15  16  26  30  31  32  33  35 0
 6-311+G(2d,p)
 ****
 37  38 0
 6-311+G(2d,p)
 ****
 1  2  3  4  5  17  18  19  20  21  22  23  24  25 0
 3-21G
 ****
 27  28  29  34  36  39  40  41  42  43  44  45  46 0
 3-21G
 ****


