%nproc=1
%NoSave
%Mem=1900MB
#P OB98/GEN NMR

erre ene a

0 1
  C     -164.662      35.892     326.553
  O     -165.536      35.624     325.459
  P     -165.867      34.176     324.881
  C     -163.866      33.883     323.199
  O     -164.501      33.491     324.410
  C     -162.782      32.872     322.791
  O     -162.159      33.330     321.553
  C     -161.670      32.747     323.840
  O     -161.247      31.407     324.066
  C     -160.624      33.730     323.338
  O     -159.326      33.493     323.868
  C     -160.765      33.600     321.822
  N     -156.811      36.299     320.048
  C     -156.816      35.199     320.884
  N     -155.617      34.764     321.319
  N     -157.905      34.589     321.272
  C     -159.039      35.171     320.827
  C     -159.165      36.270     320.009
  C     -157.955      36.909     319.542
  O     -157.891      37.873     318.789
  N     -160.483      36.561     319.763
  C     -161.152      35.656     320.445
  N     -160.319      34.781     321.105
  O     -167.020      34.096     323.939
  O     -166.258      33.321     326.194
  H     -158.778      34.272     323.666
  H     -166.920      32.663     325.906
  H     -155.942      36.715     319.764
  H     -162.232      35.575     320.490
  H     -160.179      32.769     321.426
  H     -160.927      34.732     323.666
  H     -154.753      35.261     321.162
  H     -162.024      33.073     324.824
  H     -155.640      34.105     322.100
  H     -163.259      31.905     322.595
  H     -163.408      34.858     323.402
  H     -164.601      34.018     322.403
  P     -161.668      30.412     325.241
  C     -159.747      31.061     326.812
  O     -161.150      31.019     326.632
  O     -160.745      29.122     325.046
  O     -163.109      30.019     325.238
  H     -161.303      28.338     324.873
  H     -159.535      31.233     327.868
  H     -159.325      31.882     326.225
  H     -159.288      30.116     326.504
  H     -164.623      36.947     326.728
  H     -163.681      35.532     326.322
  H     -165.026      35.398     327.430

 3  4  5  6  7  8  9  10  11  12  23  26  30  31 0
 6-311+G(2d,p)
 ****
 33  35  36  37  38 0
 6-311+G(2d,p)
 ****
 1  2  13  14  15  16  17  18  19  20  21  22  24  25 0
 3-21G
 ****
 27  28  29  32  34  39  40  41  42  43  44  45  46  47  48  49 0
 3-21G
 ****


