%nproc=1
%NoSave
%Mem=1900MB
#P OB98/GEN NMR

erre ene a

0 1
  C       99.481     683.918     290.955
  O       99.442     684.605     289.713
  P       99.572     686.210     289.651
  C       97.079     686.533     290.252
  O       98.095     686.731     289.284
  C       95.730     686.938     289.663
  O       95.721     688.342     289.363
  C       95.369     686.230     288.356
  O       94.951     684.894     288.594
  C       94.299     687.164     287.810
  O       93.041     686.922     288.452
  C       94.839     688.550     288.225
  N       95.527     689.251     287.147
  C       94.865     690.358     286.614
  O       93.766     690.718     287.034
  N       95.489     691.065     285.602
  C       96.642     690.682     285.164
  N       97.239     691.461     284.216
  C       97.350     689.489     285.671
  C       96.739     688.820     286.651
  O      100.654     686.719     288.767
  O       99.725     686.652     291.184
  H       93.181     687.032     289.409
  H      100.660     686.662     291.503
  H       98.307     689.206     285.257
  H       97.196     687.960     287.089
  H       94.018     689.179     288.601
  H       94.156     687.079     286.729
  H       96.233     686.226     287.681
  H       94.955     686.743     290.433
  H       96.803     692.358     284.023
  H       97.290     687.171     291.117
  H       98.237     691.410     284.042
  H       97.072     685.486     290.574
  P       95.020     683.863     287.370
  C       92.693     684.528     286.418
  O       93.483     683.518     287.005
  O       95.583     682.529     288.043
  O       95.851     684.322     286.226
  H       96.532     682.424     287.839
  H       91.778     684.068     286.021
  H       93.225     685.006     285.591
  H       92.420     685.270     287.171
  H       99.379     682.867     290.784
  H       98.679     684.258     291.576
  H      100.414     684.112     291.441

 3  4  5  6  7  8  9  10  11  12  13  23  27  28  29  30  32 0
 6-311+G(2d,p)
 ****
 34  35 0
 6-311+G(2d,p)
 ****
 1  2  14  15  16  17  18  19  20  21  22  24  25  26 0
 3-21G
 ****
 31  33  36  37  38  39  40  41  42  43  44  45  46 0
 3-21G
 ****


