%nproc=1
%NoSave
%Mem=1900MB
#P OB98/GEN NMR

erre ene a

0 1
  C       66.156      24.672       0.082
  O       66.915      23.985       1.055
  H       65.671      23.935      -0.564
  H       66.812      25.293      -0.532
  H       65.386      25.288       0.552
  P       67.621      24.823       2.223
  C       67.018      23.446       4.319
  O       68.026      23.783       3.378
  C       66.151      22.296       3.796
  O       67.015      21.184       3.449
  C       65.121      21.791       4.810
  O       63.921      21.439       4.123
  C       65.771      20.546       5.380
  O       64.812      19.614       5.876
  C       66.564      20.028       4.182
  N       68.311      15.300       4.525
  C       67.144      15.780       3.965
  N       66.307      14.865       3.432
  N       66.823      17.047       3.932
  C       67.765      17.852       4.482
  C       68.958      17.499       5.068
  C       69.290      16.092       5.116
  O       70.301      15.606       5.613
  N       69.631      18.603       5.529
  C       68.845      19.618       5.224
  N       67.696      19.214       4.598
  O       66.851      26.014       2.699
  O       69.033      25.247       1.606
  H       64.364      19.222       5.095
  H       69.039      26.190       1.360
  H       68.503      14.314       4.534
  H       69.058      20.658       5.435
  H       65.955      19.408       3.514
  H       66.439      20.821       6.206
  H       66.502      13.876       3.401
  H       64.900      22.531       5.578
  H       65.458      15.193       2.987
  H       65.664      22.622       2.870
  H       66.395      24.330       4.486
  H       67.489      23.160       5.266
  P       62.793      22.559       3.903
  C       62.161      21.853       1.515
  O       61.711      22.004       2.854
  O       63.300      23.932       3.617
  O       61.985      22.524       5.289
  H       61.683      23.430       5.500
  H       61.361      21.479       0.910
  H       62.979      21.164       1.489
  H       62.481      22.802       1.137

 6  7  8  9  10  11  12  13  14  15  26  29  33  34 0
 6-311+G(2d,p)
 ****
 36  38  39  40  41 0
 6-311+G(2d,p)
 ****
 1  2  3  4  5  16  17  18  19  20  21  22  23  24  25 0
 3-21G
 ****
 27  28  30  31  32  35  37  42  43  44  45  46  47 0
 3-21G
 ****
 48  49 0
 3-21G
 ****


