%nproc=1
%NoSave
%Mem=1900MB
#P OB98/GEN NMR

erre ene a

0 1
  C      -48.577     832.249    -425.273
  O      -49.497     833.311    -425.122
  H      -48.478     831.730    -424.322
  H      -47.593     832.646    -425.561
  H      -48.927     831.540    -426.034
  P      -49.918     834.101    -426.456
  C      -52.114     832.657    -426.699
  O      -50.886     833.102    -427.263
  C      -53.153     832.394    -427.786
  O      -52.677     831.316    -428.632
  C      -54.529     831.992    -427.239
  O      -55.530     832.541    -428.093
  C      -54.525     830.477    -427.373
  O      -55.850     829.938    -427.427
  C      -53.692     830.289    -428.649
  N      -53.113     828.948    -428.749
  C      -53.513     828.166    -429.827
  O      -54.336     828.604    -430.648
  N      -53.014     826.892    -429.954
  C      -52.234     826.416    -429.038
  N      -51.794     825.141    -429.197
  C      -51.814     827.194    -427.843
  C      -52.273     828.438    -427.780
  O      -48.561     834.076    -427.293
  O      -50.481     835.467    -426.218
  H      -56.363     830.460    -428.081
  H      -48.119     833.209    -427.291
  H      -51.171     826.746    -427.098
  H      -52.015     829.089    -426.948
  H      -54.321     830.461    -429.547
  H      -54.008     830.027    -426.526
  H      -54.691     832.320    -426.204
  H      -53.229     833.290    -428.418
  H      -52.133     824.634    -430.010
  H      -52.495     833.405    -425.992
  H      -51.224     824.645    -428.519
  H      -51.909     831.740    -426.131
  P      -56.170     833.982    -427.749
  C      -54.418     835.498    -428.902
  O      -54.995     835.064    -427.677
  O      -57.144     833.995    -426.616
  O      -56.908     834.370    -429.125
  H      -57.775     834.774    -428.897
  H      -53.651     836.216    -428.700
  H      -55.174     835.945    -429.513
  H      -53.995     834.659    -429.414

 6  7  8  9  10  11  12  13  14  15  16  26  30  31  32  33  35 0
 6-311+G(2d,p)
 ****
 37  38 0
 6-311+G(2d,p)
 ****
 1  2  3  4  5  17  18  19  20  21  22  23  24  25 0
 3-21G
 ****
 27  28  29  34  36  39  40  41  42  43  44  45  46 0
 3-21G
 ****


