%nproc=1
%NoSave
%Mem=1900MB
#P OB98/GEN NMR

erre ene a

0 1
  C      -42.482     318.018     -37.645
  O      -42.016     316.837     -37.009
  P      -42.893     316.237     -35.800
  C      -40.854     316.208     -34.174
  O      -41.867     315.467     -34.833
  C      -39.945     315.278     -33.370
  O      -40.698     314.764     -32.239
  C      -39.410     314.068     -34.147
  O      -38.109     313.771     -33.618
  C      -40.379     312.964     -33.766
  O      -39.835     311.662     -33.967
  C      -40.661     313.322     -32.311
  N      -42.894     310.333     -28.892
  C      -41.552     310.577     -29.113
  N      -40.690     309.982     -28.262
  N      -41.098     311.332     -30.077
  C      -42.081     311.872     -30.838
  C      -43.437     311.678     -30.745
  C      -43.928     310.872     -29.651
  O      -45.113     310.701     -29.370
  N      -44.107     312.324     -31.753
  C      -43.163     312.972     -32.407
  N      -41.924     312.766     -31.859
  O      -43.710     315.056     -36.508
  O      -43.785     317.213     -35.098
  H      -40.537     311.010     -33.763
  H      -44.589     315.361     -36.803
  H      -43.189     309.757     -28.120
  H      -43.316     313.600     -33.265
  H      -39.879     312.964     -31.629
  H      -41.288     313.042     -34.378
  H      -40.970     309.410     -27.479
  H      -39.354     314.228     -35.226
  H      -39.702     310.170     -28.380
  H      -39.115     315.869     -32.970
  H      -41.326     316.919     -33.490
  H      -40.279     316.774     -34.913
  P      -36.874     313.751     -34.639
  C      -36.571     311.241     -35.215
  O      -36.124     312.347     -34.456
  O      -35.854     314.800     -33.979
  O      -37.212     314.142     -36.038
  H      -35.344     315.248     -34.685
  H      -35.759     310.511     -35.297
  H      -36.876     311.537     -36.224
  H      -37.418     310.770     -34.704
  H      -41.802     318.296     -38.423
  H      -42.545     318.809     -36.927
  H      -43.450     317.839     -38.064

 3  4  5  6  7  8  9  10  11  12  23  26  30  31 0
 6-311+G(2d,p)
 ****
 33  35  36  37  38 0
 6-311+G(2d,p)
 ****
 1  2  13  14  15  16  17  18  19  20  21  22  24  25 0
 3-21G
 ****
 27  28  29  32  34  39  40  41  42  43  44  45  46  47  48  49 0
 3-21G
 ****


