%nproc=1
%NoSave
%Mem=1900MB
#P OB98/GEN NMR

erre ene a

0 1
  C     -231.486    -924.755    -164.576
  O     -232.769    -925.160    -165.026
  P     -233.996    -925.084    -164.006
  C     -235.703    -925.322    -165.952
  O     -235.234    -925.839    -164.718
  C     -236.927    -926.115    -166.426
  O     -237.791    -926.408    -165.314
  C     -237.795    -925.360    -167.425
  O     -237.279    -925.435    -168.751
  C     -239.092    -926.150    -167.314
  O     -239.016    -927.362    -168.093
  C     -239.159    -926.470    -165.824
  N     -243.936    -925.119    -164.798
  C     -243.439    -926.233    -165.433
  N     -244.375    -927.092    -165.936
  N     -242.184    -926.512    -165.588
  C     -241.368    -925.569    -165.051
  C     -241.721    -924.387    -164.395
  C     -243.129    -924.109    -164.243
  O     -243.618    -923.100    -163.740
  N     -240.617    -923.687    -163.978
  C     -239.594    -924.411    -164.389
  N     -239.990    -925.530    -165.081
  O     -234.429    -923.548    -164.044
  O     -233.689    -925.557    -162.618
  H     -239.866    -927.826    -167.991
  H     -234.987    -923.326    -163.274
  H     -244.926    -924.953    -164.716
  H     -238.559    -924.154    -164.226
  H     -239.540    -927.485    -165.631
  H     -239.962    -925.602    -167.697
  H     -245.368    -926.913    -165.916
  H     -237.980    -924.338    -167.121
  H     -244.044    -927.911    -166.457
  H     -236.574    -927.061    -166.844
  H     -234.914    -925.389    -166.706
  H     -235.970    -924.254    -165.823
  P     -237.731    -924.285    -169.783
  C     -235.409    -924.236    -170.939
  O     -236.799    -924.459    -171.067
  O     -237.196    -922.948    -169.075
  O     -239.205    -924.244    -170.029
  H     -237.731    -922.184    -169.341
  H     -234.898    -924.659    -171.808
  H     -235.023    -924.737    -170.028
  H     -235.198    -923.163    -170.882
  H     -230.778    -924.865    -165.371
  H     -231.190    -925.364    -163.748
  H     -231.522    -923.730    -164.270

 3  4  5  6  7  8  9  10  11  12  23  26  30  31 0
 6-311+G(2d,p)
 ****
 33  35  36  37  38 0
 6-311+G(2d,p)
 ****
 1  2  13  14  15  16  17  18  19  20  21  22  24  25 0
 3-21G
 ****
 27  28  29  32  34  39  40  41  42  43  44  45  46  47  48  49 0
 3-21G
 ****


