%nproc=1
%NoSave
%Mem=1900MB
#P OB98/GEN NMR

erre ene a

0 1
  C       28.525     760.566    -898.640
  O       29.828     760.175    -899.040
  H       28.182     761.414    -899.240
  H       27.845     759.723    -898.800
  H       28.521     760.835    -897.590
  P       30.956     761.308    -898.990
  C       32.035     760.657    -896.720
  O       31.242     761.602    -897.440
  C       33.087     761.385    -895.880
  O       32.438     762.303    -894.970
  C       33.924     760.475    -895.000
  O       34.964     759.826    -895.730
  C       34.489     761.489    -894.000
  O       35.610     762.168    -894.590
  C       33.319     762.464    -893.830
  N       33.291     762.781    -888.690
  C       34.231     763.092    -889.600
  N       34.178     762.992    -890.950
  C       32.992     762.488    -891.340
  C       31.935     762.122    -890.520
  C       32.112     762.279    -889.130
  N       31.154     761.940    -888.200
  N       30.863     761.664    -891.270
  C       31.268     761.748    -892.530
  N       32.542     762.238    -892.610
  O       30.183     762.626    -899.470
  O       32.173     761.051    -899.820
  H       35.292     762.559    -895.430
  H       30.802     763.177    -900.000
  H       35.153     763.521    -889.210
  H       30.667     761.474    -893.390
  H       33.654     763.508    -893.820
  H       34.836     761.034    -893.080
  H       33.299     759.750    -894.450
  H       33.722     761.974    -896.550
  H       32.538     759.991    -897.430
  H       31.265     762.251    -887.250
  H       30.269     761.558    -888.540
  H       31.383     760.061    -896.080
  P       34.827     758.242    -895.950
  C       34.016     758.524    -898.410
  O       33.717     758.054    -897.100
  O       34.076     757.745    -894.620
  O       36.118     757.517    -896.160
  H       34.291     756.808    -894.450
  H       33.187     758.329    -899.057
  H       34.884     758.020    -898.780
  H       34.202     759.577    -898.377

 6  7  8  9  10  11  12  13  14  15  25  28  32  33  34  35 0
 6-311+G(2d,p)
 ****
 36  39  40 0
 6-311+G(2d,p)
 ****
 1  2  3  4  5  16  17  18  19  20  21  22  23  24 0
 3-21G
 ****
 26  27  29  30  31  37  38  41  42  43  44  45  46  47  48 0
 3-21G
 ****


