%nproc=1
%NoSave
%Mem=1900MB
#P OB98/GEN NMR

erre ene a

0 1
  C     -722.504    -567.482    3064.485
  O     -721.568    -568.536    3064.155
  P     -720.378    -568.202    3063.144
  C     -718.359    -568.662    3064.773
  O     -719.106    -567.718    3063.989
  C     -718.553    -568.363    3066.290
  O     -719.873    -568.713    3066.706
  C     -717.601    -569.207    3067.147
  O     -716.329    -568.618    3067.247
  C     -718.304    -569.130    3068.486
  O     -718.015    -567.856    3069.127
  C     -719.792    -569.212    3068.097
  N     -720.567    -573.228    3071.099
  C     -719.973    -571.971    3071.367
  N     -719.548    -571.800    3072.643
  N     -719.840    -571.046    3070.464
  C     -720.339    -571.371    3069.264
  C     -720.944    -572.539    3068.864
  C     -721.056    -573.607    3069.840
  O     -721.554    -574.696    3069.659
  N     -721.325    -572.485    3067.530
  C     -720.958    -571.288    3067.168
  N     -720.353    -570.555    3068.157
  O     -720.865    -566.848    3062.435
  O     -720.103    -569.310    3062.168
  H     -717.036    -567.806    3069.277
  H     -720.505    -566.780    3061.506
  H     -720.620    -573.915    3071.803
  H     -721.136    -570.864    3066.146
  H     -720.455    -568.551    3068.699
  H     -717.990    -569.910    3069.185
  H     -719.638    -572.480    3073.375
  H     -717.556    -570.252    3066.785
  H     -719.147    -570.898    3072.845
  H     -718.386    -567.289    3066.464
  H     -717.311    -568.598    3064.476
  H     -718.714    -569.669    3064.472
  P     -715.159    -569.141    3066.260
  C     -713.814    -567.070    3065.359
  O     -714.913    -567.998    3065.167
  O     -715.900    -570.272    3065.425
  O     -713.948    -569.627    3066.959
  H     -715.253    -571.009    3065.193
  H     -713.733    -566.465    3064.492
  H     -712.892    -567.652    3065.533
  H     -714.023    -566.423    3066.247
  H     -723.237    -567.857    3065.168
  H     -722.988    -567.142    3063.593
  H     -721.979    -566.667    3064.938

 3  4  5  6  7  8  9  10  11  12  23  26  30  31 0
 6-311+G(2d,p)
 ****
 33  35  36  37  38 0
 6-311+G(2d,p)
 ****
 1  2  13  14  15  16  17  18  19  20  21  22  24  25 0
 3-21G
 ****
 27  28  29  32  34  39  40  41  42  43  44  45  46  47  48  49 0
 3-21G
 ****


