%nproc=1
%NoSave
%Mem=1900MB
#P OB98/GEN NMR

erre ene a

0 1
  C     -890.996    -108.078    -268.123
  O     -890.724    -106.934    -267.338
  H     -890.686    -107.878    -269.156
  H     -892.069    -108.300    -268.122
  H     -890.436    -108.943    -267.755
  P     -891.133    -107.023    -265.792
  C     -893.068    -105.316    -266.137
  O     -892.690    -106.626    -265.714
  C     -894.494    -105.006    -265.701
  O     -895.409    -106.022    -266.189
  C     -894.688    -104.923    -264.187
  O     -894.314    -103.656    -263.695
  C     -896.187    -105.185    -264.064
  O     -896.957    -103.996    -264.338
  C     -896.417    -106.247    -265.165
  N     -898.781    -109.824    -262.498
  C     -899.187    -108.539    -262.830
  N     -900.384    -108.139    -262.337
  N     -898.484    -107.732    -263.575
  C     -897.303    -108.259    -263.967
  C     -896.785    -109.513    -263.709
  C     -897.594    -110.412    -262.917
  O     -897.318    -111.577    -262.625
  N     -895.564    -109.683    -264.289
  C     -895.305    -108.517    -264.868
  N     -896.333    -107.619    -264.680
  O     -890.401    -105.753    -265.140
  O     -890.762    -108.291    -265.099
  H     -897.881    -104.246    -264.517
  H     -890.174    -105.962    -264.210
  H     -899.373    -110.412    -261.931
  H     -894.415    -108.283    -265.423
  H     -897.392    -106.139    -265.639
  H     -896.459    -105.512    -263.062
  H     -900.790    -108.580    -261.515
  H     -894.138    -105.730    -263.688
  H     -900.682    -107.202    -262.563
  H     -894.784    -104.051    -266.180
  H     -893.006    -105.266    -267.237
  H     -892.372    -104.589    -265.708
  P     -894.004    -103.524    -262.116
  C     -895.886    -101.772    -261.655
  O     -895.387    -103.096    -261.422
  O     -893.116    -102.192    -262.024
  O     -893.326    -104.719    -261.528
  H     -892.656    -102.176    -261.168
  H     -896.808    -101.641    -261.129
  H     -896.050    -101.632    -262.703
  H     -895.172    -101.055    -261.307

 6  7  8  9  10  11  12  13  14  15  26  29  33  34 0
 6-311+G(2d,p)
 ****
 36  38  39  40  41 0
 6-311+G(2d,p)
 ****
 1  2  3  4  5  16  17  18  19  20  21  22  23  24  25 0
 3-21G
 ****
 27  28  30  31  32  35  37  42  43  44  45  46  47 0
 3-21G
 ****
 48  49 0
 3-21G
 ****


