%nproc=1
%NoSave
%Mem=1900MB
#P OB98/GEN NMR

erre ene a

0 1
  C       25.357      28.552      26.049
  O       24.210      29.364      26.243
  P       22.744      28.718      26.343
  C       21.052      28.852      24.412
  O       22.332      28.392      24.828
  C       21.186      30.188      23.685
  O       22.113      30.019      22.586
  C       19.907      30.733      23.049
  O       19.069      31.461      23.937
  C       20.490      31.688      22.014
  O       20.895      32.912      22.654
  C       21.717      30.918      21.518
  N       22.137      30.831      16.420
  C       22.539      31.730      17.345
  N       22.372      31.691      18.685
  C       21.753      30.556      19.049
  C       21.291      29.544      18.223
  C       21.505      29.712      16.844
  N       21.115      28.781      15.905
  N       20.688      28.546      18.965
  C       20.801      28.945      20.214
  N       21.444      30.148      20.319
  O       21.766      29.523      27.124
  O       22.995      27.268      26.967
  H       20.145      33.205      23.207
  H       22.155      26.903      27.310
  H       23.060      32.603      16.959
  H       20.431      28.400      21.071
  H       22.570      31.573      21.312
  H       19.774      31.960      21.234
  H       19.347      29.942      22.535
  H       21.617      30.920      24.381
  H       20.429      28.989      25.303
  H       21.424      28.923      14.956
  H       20.793      27.880      16.232
  H       20.580      28.100      23.774
  P       17.487      31.425      23.645
  C       16.421      33.684      22.864
  O       17.225      32.567      22.552
  O       16.633      31.494      24.862
  O       17.312      30.069      22.813
  H       17.717      30.068      21.931
  H       16.498      34.413      22.052
  H       16.754      34.159      23.790
  H       15.375      33.379      22.961
  H       26.229      29.170      26.010
  H       25.261      28.013      25.130
  H       25.446      27.861      26.861

 3  4  5  6  7  8  9  10  11  12  22  25  29  30  31  32 0
 6-311+G(2d,p)
 ****
 33  36  37 0
 6-311+G(2d,p)
 ****
 1  2  13  14  15  16  17  18  19  20  21  23  24  26 0
 3-21G
 ****
 27  28  34  35  38  39  40  41  42  43  44  45  46  47  48 0
 3-21G
 ****


