%nproc=1
%NoSave
%Mem=1900MB
#P OB98/GEN NMR

erre ene a

0 1
  C     -160.747     -38.919     -94.448
  O     -161.934     -39.257     -93.760
  H     -160.921     -38.007     -95.022
  H     -160.477     -39.722     -95.138
  H     -159.929     -38.743     -93.743
  P     -161.845     -40.429     -92.670
  C     -160.896     -39.398     -90.480
  O     -162.050     -39.735     -91.235
  C     -161.282     -39.155     -89.021
  O     -160.070     -39.176     -88.212
  C     -161.976     -37.809     -88.773
  O     -162.963     -37.990     -87.752
  C     -160.855     -36.941     -88.232
  O     -161.304     -35.841     -87.451
  C     -160.058     -37.969     -87.423
  N     -158.689     -37.531     -87.153
  C     -158.525     -36.357     -86.425
  O     -159.441     -35.708     -85.924
  N     -157.228     -35.928     -86.283
  C     -156.119     -36.528     -86.800
  O     -154.987     -36.083     -86.651
  C     -156.358     -37.760     -87.564
  C     -157.612     -38.197     -87.706
  O     -160.290     -40.809     -92.679
  O     -162.725     -41.608     -92.920
  H     -160.113     -41.507     -93.337
  H     -160.517     -35.314     -87.209
  H     -157.093     -35.078     -85.759
  H     -155.502     -38.257     -88.000
  H     -157.825     -39.090     -88.283
  H     -160.567     -38.189     -86.479
  H     -160.256     -36.545     -89.061
  H     -162.439     -37.373     -89.663
  H     -161.908     -39.988     -88.679
  H     -160.450     -38.485     -90.885
  H     -160.168     -40.211     -90.552
  P     -164.503     -37.952     -88.202
  C     -164.527     -40.570     -88.337
  O     -165.103     -39.387     -87.807
  O     -164.362     -38.006     -89.794
  O     -165.239     -36.770     -87.670
  H     -163.614     -38.555     -90.091
  H     -165.056     -41.422     -87.964
  H     -163.500     -40.630     -88.041
  H     -164.590     -40.550     -89.405

 6  7  8  9  10  11  12  13  14  15  16  27  31  32  33  34  35 0
 6-311+G(2d,p)
 ****
 36  37 0
 6-311+G(2d,p)
 ****
 1  2  3  4  5  17  18  19  20  21  22  23  24  25 0
 3-21G
 ****
 26  28  29  30  38  39  40  41  42  43  44  45 0
 3-21G
 ****


