%nproc=1
%NoSave
%Mem=1900MB
#P OB98/GEN NMR

erre ene a

0 1
  C      107.444     382.792    -766.847
  O      107.204     383.161    -765.501
  P      108.320     384.033    -764.744
  C      109.014     382.089    -763.188
  O      108.485     383.405    -763.279
  C      108.634     381.437    -761.866
  O      109.440     382.020    -760.802
  C      107.158     381.624    -761.467
  O      106.651     380.377    -760.942
  C      107.211     382.607    -760.310
  O      106.094     382.482    -759.440
  C      108.557     382.218    -759.688
  N      107.683     384.762    -755.414
  C      107.028     383.661    -755.917
  N      105.953     383.221    -755.229
  N      107.392     383.056    -757.026
  C      108.499     383.589    -757.598
  C      109.244     384.680    -757.173
  C      108.794     385.377    -755.986
  O      109.273     386.406    -755.527
  N      110.307     384.906    -758.004
  C      110.218     383.972    -758.938
  N      109.100     383.183    -758.759
  O      107.577     385.420    -764.497
  O      109.600     384.236    -765.517
  H      106.264     383.066    -758.679
  H      108.097     386.160    -764.879
  H      107.350     385.199    -754.571
  H      110.906     383.853    -759.766
  H      108.458     381.254    -759.157
  H      107.239     383.633    -760.707
  H      105.643     383.622    -754.357
  H      106.507     381.975    -762.277
  H      105.476     382.406    -755.589
  H      108.899     380.369    -761.913
  H      110.100     382.126    -763.266
  H      108.620     381.489    -764.028
  P      105.193     379.931    -761.498
  C      103.772     380.705    -759.447
  O      104.314     379.625    -760.196
  O      105.475     378.480    -762.124
  O      104.608     380.883    -762.493
  H      104.811     378.281    -762.815
  H      103.903     381.661    -759.976
  H      104.280     380.757    -758.483
  H      102.709     380.524    -759.294
  H      106.618     382.218    -767.212
  H      108.337     382.206    -766.902
  H      107.558     383.673    -767.443

 3  4  5  6  7  8  9  10  11  12  23  26  30  31  33  0
 6-311+G(2d,p)
 ****
 35  36  37  38 0
 6-311+G(2d,p)
 ****
 1  2  13  14  15  16  17  18  19  20  21  22  24  25  27  28  29 0
 3-21G
 ****
 32  34  39  40  41  42  43  44  45  46  47  48  49 0
 3-21G
 ****


