%nproc=1
%NoSave
%Mem=1900MB
#P OB98/GEN NMR

erre ene a

0 1
  C     -368.802     174.044    -420.212
  O     -369.648     175.141    -420.550
  P     -369.126     176.177    -421.660
  C     -368.770     178.747    -421.643
  O     -368.748     177.542    -420.896
  C     -368.219     179.917    -420.834
  O     -369.180     180.273    -419.791
  C     -366.887     179.631    -420.125
  O     -366.146     180.860    -420.087
  C     -367.310     179.272    -418.709
  O     -366.250     179.421    -417.776
  C     -368.486     180.220    -418.526
  N     -371.869     181.764    -415.006
  C     -371.163     182.445    -415.929
  N     -370.282     181.957    -416.829
  C     -370.163     180.634    -416.723
  C     -370.788     179.802    -415.807
  C     -371.692     180.407    -414.913
  N     -372.420     179.720    -413.981
  N     -370.396     178.489    -415.978
  C     -369.539     178.523    -416.987
  N     -369.381     179.793    -417.479
  O     -370.471     176.546    -422.449
  O     -368.080     175.651    -422.591
  H     -366.554     179.095    -416.905
  H     -370.441     176.177    -423.356
  H     -371.330     183.516    -415.948
  H     -369.004     177.668    -417.385
  H     -368.152     181.241    -418.286
  H     -367.648     178.222    -418.683
  H     -366.291     178.838    -420.606
  H     -368.121     180.787    -421.493
  H     -369.810     178.969    -421.915
  H     -373.150     180.212    -413.482
  H     -372.437     178.711    -414.035
  H     -368.198     178.618    -422.567
  P     -364.698     180.816    -419.380
  C     -363.833     181.147    -416.959
  O     -364.953     181.003    -417.810
  O     -364.037     182.212    -419.829
  O     -363.854     179.647    -419.779
  H     -363.064     182.131    -419.843
  H     -364.109     181.807    -416.132
  H     -362.970     181.579    -417.487
  H     -363.554     180.173    -416.549
  H     -369.278     173.444    -419.465
  H     -367.872     174.414    -419.833
  H     -368.621     173.451    -421.084

 3  4  5  6  7  8  9  10  11  12  22  25  29  30  31  32 0
 6-311+G(2d,p)
 ****
 33  36  37 0
 6-311+G(2d,p)
 ****
 1  2  13  14  15  16  17  18  19  20  21  23  24  26 0
 3-21G
 ****
 27  28  34  35  38  39  40  41  42  43  44  45  46  47  48 0
 3-21G
 ****


