%nproc=1
%NoSave
%Mem=1900MB
#P OB98/GEN NMR

erre ene a

0 1
  C     -212.935     295.432      11.832
  O     -213.234     296.639      11.149
  P     -212.203     297.863      11.165
  C     -213.680     299.619      12.334
  O     -213.091     299.204      11.111
  C     -215.178     299.880      12.155
  O     -215.353     300.895      11.134
  C     -215.961     298.650      11.722
  O     -217.253     298.679      12.337
  C     -216.142     298.832      10.225
  O     -217.310     298.130       9.752
  C     -216.214     300.357      10.108
  N     -216.875     300.150       5.024
  C     -217.536     299.556       6.037
  N     -217.292     299.635       7.361
  C     -216.266     300.476       7.609
  C     -215.503     301.156       6.675
  C     -215.835     300.966       5.319
  N     -215.168     301.585       4.286
  N     -214.518     301.905       7.299
  C     -214.705     301.692       8.584
  N     -215.761     300.842       8.825
  O     -211.120     297.796      10.146
  O     -211.618     297.881      12.657
  H     -217.160     297.175       9.908
  H     -210.670     298.111      12.649
  H     -218.373     298.925       5.747
  H     -214.110     302.117       9.378
  H     -217.228     300.732      10.287
  H     -215.275     298.426       9.696
  H     -215.453     297.710      11.965
  H     -215.574     300.289      13.096
  H     -213.187     300.542      12.664
  H     -215.555     301.486       3.359
  H     -214.515     302.326       4.514
  H     -213.510     298.850      13.099
  P     -217.309     298.171      13.867
  C     -218.334     295.865      13.193
  O     -218.497     297.081      13.885
  O     -217.413     299.303      14.837
  O     -215.958     297.316      13.966
  H     -215.672     296.995      13.089
  H     -219.254     295.279      13.296
  H     -217.509     295.289      13.633
  H     -218.135     296.045      12.133
  H     -213.741     294.741      11.704
  H     -212.802     295.635      12.874
  H     -212.036     295.010      11.433

 3  4  5  6  7  8  9  10  11  12  22  25  29  30  31  32 0
 6-311+G(2d,p)
 ****
 33  36  37 0
 6-311+G(2d,p)
 ****
 1  2  13  14  15  16  17  18  19  20  21  23  24  26 0
 3-21G
 ****
 27  28  34  35  38  39  40  41  42  43  44  45  46  47  48 0
 3-21G
 ****


