%nproc=1
%NoSave
%Mem=1900MB
#P OB98/GEN NMR

erre ene a

0 1
  C       90.646    -410.555    -432.580
  O       90.594    -409.787    -431.394
  P       91.592    -408.530    -431.283
  C       94.179    -408.257    -431.245
  O       93.070    -409.152    -431.277
  C       94.996    -408.461    -429.979
  O       95.227    -409.866    -429.760
  C       96.373    -407.824    -430.014
  O       96.280    -406.428    -429.795
  C       97.086    -408.579    -428.901
  O       96.852    -407.961    -427.627
  C       96.434    -409.976    -428.966
  N       97.327    -410.991    -429.503
  C       98.390    -411.359    -428.670
  O       98.534    -410.818    -427.574
  N       99.287    -412.298    -429.121
  C       99.131    -412.815    -430.298
  N      100.043    -413.747    -430.697
  C       98.038    -412.442    -431.212
  C       97.183    -411.522    -430.759
  O       91.386    -408.032    -429.778
  O       91.347    -407.446    -432.280
  H       95.880    -407.970    -427.502
  H       91.591    -407.085    -429.694
  H       97.954    -412.903    -432.190
  H       96.348    -411.189    -431.368
  H       96.115    -410.292    -427.969
  H       98.173    -408.595    -429.053
  H       96.865    -408.027    -430.976
  H       94.412    -408.075    -429.129
  H      100.789    -413.980    -430.047
  H       93.810    -407.230    -431.272
  H      100.001    -414.225    -431.585
  H       94.791    -408.427    -432.138
  P       97.450    -405.506    -430.383
  C      100.004    -405.617    -430.191
  O       98.768    -405.963    -429.602
  O       97.131    -404.084    -429.704
  O       97.555    -405.396    -431.869
  H       97.726    -403.402    -430.059
  H      100.811    -405.843    -429.491
  H      100.030    -404.544    -430.423
  H      100.158    -406.196    -431.107
  H       89.935    -411.353    -432.520
  H       91.629    -410.961    -432.699
  H       90.413    -409.932    -433.419

 3  4  5  6  7  8  9  10  11  12  13  21  23  27  28  29  30  32 0
 6-311+G(2d,p)
 ****
 34  35 0
 6-311+G(2d,p)
 ****
 1  2  14  15  16  17  18  19  20  22  24  25  26 0
 3-21G
 ****
 31  33  36  37  38  39  40  41  42  43  44  45  46 0
 3-21G
 ****


