%nproc=1
%NoSave
%Mem=1900MB
#P OB98/GEN NMR

erre ene a

0 1
  C     -162.317     -20.757      43.684
  O     -163.406     -19.887      43.909
  H     -162.217     -20.919      42.608
  H     -162.505     -21.720      44.167
  H     -161.386     -20.330      44.062
  P     -163.582     -19.227      45.357
  C     -163.897     -20.088      47.771
  O     -163.601     -20.427      46.424
  C     -164.704     -21.204      48.447
  O     -166.019     -21.270      47.836
  C     -164.046     -22.576      48.243
  O     -164.349     -23.479      49.305
  C     -164.704     -23.075      46.967
  O     -164.662     -24.497      46.833
  C     -166.116     -22.510      47.110
  N     -170.348     -23.137      44.333
  C     -170.008     -23.700      45.549
  N     -170.921     -24.542      46.094
  N     -168.874     -23.481      46.158
  C     -168.031     -22.679      45.461
  C     -168.244     -22.077      44.240
  C     -169.519     -22.302      43.591
  O     -169.861     -21.844      42.504
  N     -167.153     -21.343      43.844
  C     -166.282     -21.501      44.819
  N     -166.777     -22.283      45.837
  O     -165.108     -18.734      45.365
  O     -162.640     -18.105      45.674
  H     -165.184     -24.731      46.043
  H     -165.234     -18.029      46.026
  H     -171.247     -23.315      43.921
  H     -165.290     -21.060      44.850
  H     -166.748     -23.191      47.692
  H     -164.160     -22.657      46.115
  H     -171.708     -24.886      45.569
  H     -162.967     -22.512      48.129
  H     -170.569     -25.190      46.805
  H     -164.858     -20.967      49.507
  H     -164.471     -19.158      47.748
  H     -162.977     -19.886      48.322
  P     -163.190     -23.851      50.347
  C     -160.833     -25.055      50.237
  O     -162.039     -24.679      49.609
  O     -163.876     -24.926      51.310
  O     -162.646     -22.681      51.110
  H     -163.943     -24.576      52.218
  H     -160.225     -25.599      49.545
  H     -161.049     -25.673      51.083
  H     -160.310     -24.179      50.559

 6  7  8  9  10  11  12  13  14  15  26  29  33  34 0
 6-311+G(2d,p)
 ****
 36  38  39  40  41 0
 6-311+G(2d,p)
 ****
 1  2  3  4  5  16  17  18  19  20  21  22  23  24  25 0
 3-21G
 ****
 27  28  30  31  32  35  37  42  43  44  45  46  47 0
 3-21G
 ****
 48  49 0
 3-21G
 ****


