%nproc=1
%NoSave
%Mem=1900MB
#P OB98/GEN NMR

erre ene a

0 1
  C      111.687      52.629     107.779
  O      111.649      53.456     106.634
  H      112.302      51.753     107.560
  H      110.678      52.296     108.031
  H      112.125      53.164     108.627
  P      110.998      54.911     106.799
  C      113.268      56.026     107.401
  O      111.945      55.722     107.813
  C      113.979      56.839     108.482
  O      114.073      56.025     109.686
  C      115.403      57.268     108.106
  O      115.645      58.566     108.659
  C      116.269      56.252     108.827
  O      117.594      56.699     109.080
  C      115.453      56.031     110.105
  N      115.801      54.787     110.786
  C      117.133      54.606     111.143
  O      118.018      55.447     111.004
  N      117.437      53.383     111.687
  C      116.570      52.349     111.879
  O      116.908      51.270     112.352
  C      115.179      52.598     111.475
  C      114.866      53.785     110.953
  O      109.687      54.622     107.667
  O      110.696      55.627     105.525
  H      108.928      54.429     107.086
  H      118.060      55.982     109.557
  H      118.398      53.234     111.950
  H      114.465      51.796     111.602
  H      113.852      53.995     110.624
  H      115.582      56.877     110.791
  H      116.329      55.329     108.238
  H      115.597      57.283     107.029
  H      113.361      57.710     108.732
  H      113.235      56.614     106.478
  H      113.809      55.094     107.206
  P      115.270      59.836     107.750
  C      113.273      60.370     109.360
  O      113.718      60.125     108.034
  O      115.294      59.187     106.290
  O      116.195      60.988     107.949
  H      114.978      58.268     106.277
  H      112.217      60.541     109.356
  H      113.772      61.232     109.750
  H      113.495      59.522     109.973

 6  7  8  9  10  11  12  13  14  15  16  27  31  32  33  34  35 0
 6-311+G(2d,p)
 ****
 36  37 0
 6-311+G(2d,p)
 ****
 1  2  3  4  5  17  18  19  20  21  22  23  24  25 0
 3-21G
 ****
 26  28  29  30  38  39  40  41  42  43  44  45 0
 3-21G
 ****


