%nproc=1
%NoSave
%Mem=1900MB
#P OB98/GEN NMR

erre ene a

0 1
  C      -38.095     297.971    -234.526
  O      -38.415     297.467    -235.813
  P      -38.797     298.527    -236.956
  C      -40.877     298.475    -238.495
  O      -40.388     298.421    -237.162
  C      -42.400     298.528    -238.513
  O      -42.921     297.302    -237.929
  C      -43.001     299.704    -237.726
  O      -44.070     300.284    -238.485
  C      -43.613     299.038    -236.504
  O      -44.680     299.804    -235.956
  C      -44.032     297.696    -237.101
  N      -47.366     296.183    -233.620
  C      -47.495     297.141    -234.606
  N      -48.656     297.832    -234.628
  N      -46.566     297.403    -235.488
  C      -45.471     296.614    -235.367
  C      -45.232     295.627    -234.439
  C      -46.242     295.389    -233.431
  O      -46.153     294.617    -232.479
  N      -44.012     295.033    -234.646
  C      -43.511     295.663    -235.694
  N      -44.340     296.664    -236.137
  O      -38.198     297.854    -238.281
  O      -38.261     299.902    -236.756
  H      -45.140     299.234    -235.312
  H      -37.586     298.477    -238.716
  H      -48.105     296.033    -232.956
  H      -42.548     295.453    -236.141
  H      -44.913     297.821    -237.745
  H      -42.838     298.917    -235.736
  H      -49.426     297.657    -234.003
  H      -42.277     300.481    -237.455
  H      -48.776     298.524    -235.358
  H      -42.736     298.551    -239.558
  H      -40.542     297.584    -239.037
  H      -40.464     299.362    -238.987
  P      -43.842     301.795    -238.982
  C      -44.745     304.088    -238.136
  O      -44.486     302.727    -237.849
  O      -44.853     301.937    -240.214
  O      -42.432     302.100    -239.361
  H      -44.551     302.635    -240.826
  H      -44.617     304.319    -239.200
  H      -44.063     304.712    -237.554
  H      -45.774     304.322    -237.848
  H      -37.863     297.157    -233.872
  H      -38.931     298.514    -234.137
  H      -37.249     298.623    -234.598

 3  4  5  6  7  8  9  10  11  12  23  26  30  31  33  0
 6-311+G(2d,p)
 ****
 35  36  37  38 0
 6-311+G(2d,p)
 ****
 1  2  13  14  15  16  17  18  19  20  21  22  24  25  27  28  29 0
 3-21G
 ****
 32  34  39  40  41  42  43  44  45  46  47  48  49 0
 3-21G
 ****


