%nproc=1
%NoSave
%Mem=1900MB
#P OB98/GEN NMR

erre ene a

0 1
  C     -103.750    -555.686     199.546
  O     -105.056    -555.463     200.047
  H     -103.688    -556.713     199.173
  H     -103.017    -555.555     200.347
  H     -103.533    -554.999     198.724
  P     -105.425    -553.951     200.426
  C     -107.807    -554.042     199.335
  O     -107.028    -553.857     200.509
  C     -109.180    -553.394     199.508
  O     -110.007    -554.175     200.391
  C     -109.145    -552.026     200.168
  O     -108.642    -551.022     199.315
  C     -110.617    -551.842     200.520
  O     -111.367    -551.332     199.412
  C     -111.054    -553.292     200.858
  N     -111.330    -553.457     202.273
  C     -112.427    -552.735     202.759
  O     -113.096    -552.043     201.987
  N     -112.715    -552.795     204.094
  C     -111.953    -553.485     204.884
  N     -112.275    -553.468     206.211
  C     -110.784    -554.253     204.417
  C     -110.531    -554.195     203.111
  O     -105.082    -553.163     199.074
  O     -104.728    -553.421     201.632
  H     -110.897    -550.531     199.108
  H     -105.459    -553.571     198.277
  H     -110.188    -554.824     205.119
  H     -109.693    -554.736     202.682
  H     -111.959    -553.556     200.299
  H     -110.749    -551.143     201.347
  H     -108.573    -552.072     201.107
  H     -109.663    -553.351     198.524
  H     -113.052    -552.886     206.490
  H     -107.916    -555.111     199.106
  H     -111.710    -553.904     206.926
  H     -107.270    -553.580     198.500
  P     -107.555    -549.962     199.822
  C     -106.250    -549.888     197.602
  O     -107.053    -549.155     198.528
  O     -106.459    -550.529     200.659
  O     -108.446    -548.862     200.572
  H     -109.113    -548.428     200.017
  H     -105.976    -549.252     196.786
  H     -106.806    -550.724     197.232
  H     -105.366    -550.237     198.094

 6  7  8  9  10  11  12  13  14  15  16  26  30  31  32  33  35 0
 6-311+G(2d,p)
 ****
 37  38 0
 6-311+G(2d,p)
 ****
 1  2  3  4  5  17  18  19  20  21  22  23  24  25 0
 3-21G
 ****
 27  28  29  34  36  39  40  41  42  43  44  45  46 0
 3-21G
 ****


