%nproc=1
%NoSave
%Mem=1900MB
#P OB98/GEN NMR

erre ene a

0 1
  C       89.232     336.759     472.330
  O       89.863     337.652     471.437
  H       88.933     337.313     473.225
  H       89.925     335.968     472.626
  H       88.339     336.320     471.879
  P       90.248     337.131     469.971
  C       88.105     337.906     468.770
  O       88.876     336.797     469.216
  C       87.673     337.690     467.320
  O       88.837     337.505     466.481
  C       86.823     336.442     467.110
  O       85.498     336.634     467.563
  C       86.970     336.246     465.611
  O       86.070     337.091     464.886
  C       88.435     336.677     465.370
  N       89.327     335.524     465.224
  C       89.940     335.375     463.984
  O       89.774     336.151     463.043
  N       90.715     334.254     463.831
  C       90.813     333.231     464.729
  O       91.311     332.143     464.457
  C       90.196     333.471     466.042
  C       89.480     334.585     466.222
  O       91.283     336.055     469.920
  O       90.751     338.458     469.223
  H       91.727     338.458     469.194
  H       85.202     337.002     465.331
  H       91.127     334.118     462.921
  H       90.315     332.712     466.807
  H       88.987     334.768     467.174
  H       88.510     337.291     464.466
  H       86.764     335.213     465.320
  H       87.282     335.589     467.628
  H       87.143     338.588     466.979
  H       88.719     338.810     468.836
  H       87.232     338.017     469.422
  P       84.616     335.384     468.036
  C       85.091     335.403     470.564
  O       85.315     334.733     469.327
  O       84.261     334.410     466.959
  O       83.294     336.052     468.652
  H       82.511     335.618     468.257
  H       85.601     334.884     471.348
  H       84.042     335.424     470.773
  H       85.462     336.405     470.499

 6  7  8  9  10  11  12  13  14  15  16  27  31  32  33  34  35 0
 6-311+G(2d,p)
 ****
 36  37 0
 6-311+G(2d,p)
 ****
 1  2  3  4  5  17  18  19  20  21  22  23  24  25 0
 3-21G
 ****
 26  28  29  30  38  39  40  41  42  43  44  45 0
 3-21G
 ****


