%nproc=1
%NoSave
%Mem=1900MB
#P OB98/GEN NMR

erre ene a

0 1
  C      690.921      72.126    -371.512
  O      691.984      71.696    -372.339
  H      690.226      72.726    -372.115
  H      691.307      72.751    -370.702
  H      690.378      71.275    -371.095
  P      692.993      70.584    -371.781
  C      695.025      72.144    -371.456
  O      694.471      71.064    -372.194
  C      695.109      73.407    -372.321
  O      695.883      73.091    -373.524
  C      693.730      73.938    -372.790
  O      693.844      75.370    -372.889
  C      693.627      73.300    -374.158
  O      692.600      73.883    -374.935
  C      695.063      73.479    -374.651
  N      695.381      72.682    -375.838
  C      694.766      73.051    -377.031
  O      694.002      74.007    -377.144
  N      695.062      72.260    -378.117
  C      695.881      71.167    -378.105
  O      696.127      70.501    -379.116
  C      696.474      70.814    -376.811
  C      696.207      71.587    -375.749
  O      692.671      69.175    -372.136
  O      692.975      70.818    -370.191
  H      692.359      70.173    -369.783
  H      692.664      73.568    -375.863
  H      694.621      72.503    -378.989
  H      697.117      69.943    -376.766
  H      696.625      71.354    -374.772
  H      695.276      74.536    -374.858
  H      693.375      72.235    -374.064
  H      692.921      73.680    -372.102
  H      695.665      74.176    -371.779
  H      696.030      71.861    -371.122
  H      694.397      72.338    -370.573
  P      692.963      76.386    -372.014
  C      691.515      77.808    -373.608
  O      692.719      77.732    -372.860
  O      693.518      76.636    -370.647
  O      691.512      75.722    -371.913
  H      691.132      75.910    -371.042
  H      691.473      78.746    -374.122
  H      690.678      77.726    -372.946
  H      691.486      77.009    -374.320

 6  7  8  9  10  11  12  13  14  15  16  27  31  32  33  34  35 0
 6-311+G(2d,p)
 ****
 36  37 0
 6-311+G(2d,p)
 ****
 1  2  3  4  5  17  18  19  20  21  22  23  24  25 0
 3-21G
 ****
 26  28  29  30  38  39  40  41  42  43  44  45 0
 3-21G
 ****


