%nproc=1
%NoSave
%Mem=1900MB
#P OB98/GEN NMR

erre ene a

0 1
  C      592.701      85.970     681.366
  O      592.243      86.888     682.342
  H      592.777      84.982     681.823
  H      593.685      86.271     680.996
  H      591.988      85.927     680.533
  P      592.165      88.428     681.897
  C      593.295      89.522     683.981
  O      593.433      89.098     682.631
  C      594.089      90.808     684.209
  O      595.444      90.662     683.730
  C      593.535      92.026     683.466
  O      592.396      92.588     684.088
  C      594.736      92.944     683.541
  O      594.854      93.480     684.878
  C      595.886      91.955     683.237
  N      596.197      91.881     681.807
  C      597.395      92.483     681.404
  O      598.126      93.057     682.207
  N      597.721      92.464     680.061
  C      596.941      91.869     679.210
  N      597.312      91.884     677.904
  C      595.685      91.207     679.601
  C      595.380      91.249     680.899
  O      590.935      88.997     682.746
  O      592.080      88.687     680.433
  H      593.965      93.814     685.123
  H      590.887      89.984     682.661
  H      595.059      90.735     678.855
  H      594.473      90.781     681.260
  H      596.794      92.227     683.784
  H      594.674      93.799     682.866
  H      593.329      91.801     682.413
  H      594.134      90.986     685.289
  H      598.153      92.401     677.660
  H      593.682      88.725     684.633
  H      596.704      91.587     677.154
  H      592.241      89.699     684.218
  P      591.289      93.263     683.134
  C      591.579      95.746     683.881
  O      591.766      94.763     682.859
  O      590.030      93.447     684.107
  O      590.945      92.464     681.917
  H      589.195      93.331     683.619
  H      591.949      96.690     683.540
  H      592.111      95.451     684.761
  H      590.537      95.832     684.107

 6  7  8  9  10  11  12  13  14  15  16  26  30  31  32  33  35 0
 6-311+G(2d,p)
 ****
 37  38 0
 6-311+G(2d,p)
 ****
 1  2  3  4  5  17  18  19  20  21  22  23  24  25 0
 3-21G
 ****
 27  28  29  34  36  39  40  41  42  43  44  45  46 0
 3-21G
 ****


