%nproc=1
%NoSave
%Mem=1900MB
#P OB98/GEN NMR

erre ene a

0 1
  C       43.927    -104.929      43.888
  O       45.093    -104.130      43.926
  H       43.446    -104.896      44.869
  H       44.190    -105.964      43.656
  H       43.230    -104.546      43.138
  P       45.926    -104.016      42.561
  C       46.096    -101.434      42.881
  O       46.779    -102.662      42.678
  C       47.045    -100.394      43.486
  O       47.219    -100.692      44.904
  C       48.446    -100.395      42.852
  O       48.983     -99.063      42.929
  C       49.214    -101.298      43.801
  O       50.601    -101.137      43.623
  C       48.637    -100.826      45.131
  N       52.298    -103.145      47.817
  C       52.348    -102.213      46.842
  N       51.324    -101.636      46.180
  C       50.147    -102.097      46.639
  C       49.936    -103.047      47.622
  C       51.084    -103.590      48.223
  N       51.041    -104.557      49.201
  N       48.583    -103.277      47.794
  C       47.991    -102.475      46.932
  N       48.896    -101.742      46.216
  O       44.802    -103.665      41.476
  O       46.713    -105.223      42.181
  H       50.881    -100.225      43.841
  H       44.471    -104.483      41.063
  H       53.344    -101.886      46.554
  H       46.923    -102.391      46.781
  H       49.025     -99.844      45.428
  H       48.979    -102.351      43.619
  H       48.452    -100.734      41.813
  H       46.579     -99.403      43.426
  H       45.254    -101.611      43.557
  H       45.717    -101.066      41.922
  H       51.912    -104.913      49.560
  H       50.146    -104.924      49.491
  P       48.945     -98.130      41.621
  C       48.728     -95.898      42.956
  O       49.435     -96.644      41.979
  O       47.369     -97.923      41.407
  O       49.557     -98.720      40.394
  H       47.145     -98.051      40.466
  H       49.185     -94.937      43.070
  H       48.754     -96.419      43.890
  H       47.712     -95.775      42.644

 6  7  8  9  10  11  12  13  14  15  25  28  32  33  34  35 0
 6-311+G(2d,p)
 ****
 36  37  40 0
 6-311+G(2d,p)
 ****
 1  2  3  4  5  16  17  18  19  20  21  22  23  24 0
 3-21G
 ****
 26  27  29  30  31  38  39 41  42  43  44  45  46  47  48 0
 3-21G
 ****


