%nproc=1
%NoSave
%Mem=1900MB
#P OB98/GEN NMR

erre ene a

0 1
  C     -100.493      51.859      64.394
  O     -101.909      51.658      64.454
  P     -102.597      50.810      65.630
  C     -103.983      52.748      66.599
  O     -104.025      51.442      66.028
  C     -105.365      53.405      66.700
  O     -105.680      54.146      65.489
  C     -106.532      52.432      66.936
  O     -107.497      53.153      67.703
  C     -107.040      52.198      65.522
  O     -108.363      51.674      65.477
  C     -106.890      53.592      64.935
  N     -109.496      54.637      60.647
  C     -109.741      54.934      61.939
  N     -108.986      54.656      63.022
  C     -107.843      54.043      62.668
  C     -107.447      53.690      61.386
  C     -108.337      54.001      60.343
  N     -108.114      53.661      59.027
  N     -106.224      53.041      61.412
  C     -105.893      53.001      62.687
  N     -106.840      53.599      63.488
  O     -101.700      50.553      66.805
  O     -102.992      49.416      64.936
  H     -108.962      52.329      65.879
  H     -102.725      48.680      65.521
  H     -110.677      55.456      62.132
  H     -105.003      52.536      63.095
  H     -107.726      54.241      65.244
  H     -106.381      51.475      65.019
  H     -106.232      51.510      67.445
  H     -105.318      54.143      67.512
  H     -103.326      53.375      65.986
  H     -108.859      53.851      58.360
  H     -107.324      53.076      58.797
  H     -103.532      52.680      67.600
  P     -108.165      52.525      69.028
  C     -108.578      54.855      70.011
  O     -109.170      53.633      69.602
  O     -107.189      51.986      70.027
  O     -109.144      51.383      68.485
  H     -109.350      50.761      69.208
  H     -108.084      54.720      70.974
  H     -109.360      55.611      70.110
  H     -107.844      55.206      69.275
  H     -100.253      52.449      63.534
  H     -100.001      50.911      64.325
  H     -100.167      52.367      65.278

 3  4  5  6  7  8  9  10  11  12  22  25  29  30  31  32 0
 6-311+G(2d,p)
 ****
 33  36  37 0
 6-311+G(2d,p)
 ****
 1  2  13  14  15  16  17  18  19  20  21  23  24  26 0
 3-21G
 ****
 27  28  34  35  38  39  40  41  42  43  44  45  46  47  48 0
 3-21G
 ****


