%nproc=1
%NoSave
%Mem=1900MB
#P OB98/GEN NMR

erre ene a

0 1
  C      200.464     807.872     150.166
  O      199.653     808.867     150.751
  P      200.258     809.854     151.855
  C      198.236     809.390     153.390
  O      199.047     810.386     152.773
  C      197.694     809.899     154.731
  O      198.768     810.088     155.687
  C      196.995     811.237     154.640
  O      195.726     811.143     154.019
  C      196.972     811.647     156.111
  O      195.888     810.993     156.805
  C      198.326     811.101     156.610
  N      199.315     812.158     156.772
  C      199.249     812.876     157.971
  O      198.350     812.669     158.778
  N      200.213     813.824     158.221
  C      201.084     814.111     157.302
  N      202.063     815.014     157.621
  C      201.083     813.488     155.962
  C      200.198     812.508     155.773
  O      201.165     810.919     151.338
  O      201.047     808.872     152.860
  H      201.943     809.223     153.002
  H      195.822     811.413     157.696
  H      201.804     813.805     155.199
  H      200.134     811.973     154.833
  H      198.197     810.583     157.566
  H      196.832     812.723     156.243
  H      197.624     811.949     154.084
  H      197.014     809.133     155.129
  H      202.031     815.419     158.544
  H      198.848     808.492     153.556
  H      202.940     815.063     157.124
  H      197.408     809.131     152.719
  P      195.576     811.799     152.553
  C      194.773     814.215     153.032
  O      194.426     812.896     152.637
  O      194.933     810.610     151.691
  O      196.863     812.276     151.946
  H      195.285     810.629     150.776
  H      193.977     814.891     152.695
  H      195.716     814.527     152.571
  H      194.851     814.262     154.114
  H      199.889     807.315     149.456
  H      200.826     807.213     150.928
  H      201.293     808.333     149.670

 3  4  5  6  7  8  9  10  11  12  13  24  27  28  29  30  32 0
 6-311+G(2d,p)
 ****
 34  35 0
 6-311+G(2d,p)
 ****
 1  2  14  15  16  17  18  19  20  21  22  23  25  26 0
 3-21G
 ****
 31  33  36  37  38  39  40  41  42  43  44  45  46 0
 3-21G
 ****


