%nproc=1
%NoSave
%Mem=1900MB
#P OB98/GEN NMR

erre ene a

0 1
  C      863.283     980.371     152.936
  O      861.894     980.021     152.856
  P      860.777     980.724     153.762
  C      859.250     978.657     153.549
  O      859.354     980.077     153.425
  C      857.935     978.127     152.962
  O      856.835     978.362     153.857
  C      857.520     978.777     151.642
  O      858.254     978.216     150.567
  C      856.031     978.475     151.613
  O      855.782     977.127     151.162
  C      855.653     978.608     153.104
  N      851.367     981.448     153.274
  C      851.595     980.153     152.927
  N      852.763     979.475     152.901
  C      853.770     980.258     153.300
  C      853.718     981.595     153.676
  C      852.440     982.201     153.652
  N      852.227     983.522     153.990
  N      854.975     982.083     154.006
  C      855.769     981.041     153.861
  N      855.110     979.926     153.422
  O      860.799     982.221     153.724
  O      861.076     980.192     155.260
  H      854.829     977.070     150.926
  H      860.781     980.845     155.899
  H      850.711     979.595     152.629
  H      856.834     981.061     154.035
  H      854.898     977.870     153.405
  H      855.467     979.142     150.949
  H      857.673     979.849     151.682
  H      858.030     977.036     152.841
  H      859.315     978.401     154.612
  H      851.294     983.888     153.904
  H      853.030     984.104     154.221
  H      860.098     978.193     153.023
  P      859.418     979.060     149.863
  C      858.957     978.740     147.343
  O      859.750     978.337     148.470
  O      860.599     979.366     150.710
  O      858.677     980.410     149.390
  H      859.323     981.148     149.398
  H      857.994     978.216     147.385
  H      859.482     978.432     146.429
  H      858.808     979.811     147.338
  H      863.841     979.776     152.243
  H      863.640     980.191     153.929
  H      863.404     981.407     152.696

 3  4  5  6  7  8  9  10  11  12  22  25  29  30  31  32 0
 6-311+G(2d,p)
 ****
 33  36  37 0
 6-311+G(2d,p)
 ****
 1  2  13  14  15  16  17  18  19  20  21  23  24  26 0
 3-21G
 ****
 27  28  34  35  38  39  40  41  42  43  44  45  46  47  48 0
 3-21G
 ****


