%nproc=1
%NoSave
%Mem=1900MB
#P OB98/GEN NMR

erre ene a

0 1
  C       13.422      52.300      87.579
  O       12.282      53.083      87.865
  H       13.267      51.789      86.624
  H       13.568      51.548      88.359
  H       14.309      52.933      87.501
  P       12.324      53.953      89.212
  C       10.854      52.275      90.549
  O       12.117      52.918      90.421
  C       10.598      51.929      92.013
  O        9.174      51.816      92.238
  C       11.190      50.595      92.454
  O       12.577      50.693      92.720
  C       10.353      50.296      93.691
  O       10.864      50.969      94.848
  C        8.982      50.871      93.313
  N        4.799      48.307      94.690
  C        5.463      49.330      95.271
  N        6.565      49.973      94.827
  C        6.967      49.462      93.651
  C        6.396      48.417      92.945
  C        5.254      47.827      93.510
  N        4.599      46.763      92.938
  N        7.123      48.151      91.802
  C        8.109      49.025      91.813
  N        8.050      49.839      92.908
  O       10.940      54.758      89.161
  O       13.498      54.863      89.346
  H       10.249      50.770      95.581
  H       11.089      55.639      88.769
  H        5.059      49.676      96.218
  H        8.887      49.101      91.063
  H        8.520      51.417      94.144
  H       10.344      49.228      93.914
  H       10.993      49.825      91.698
  H       10.977      52.748      92.637
  H       10.856      51.354      89.956
  H       10.076      52.944      90.168
  H        3.799      46.374      93.411
  H        4.993      46.330      92.113
  P       13.531      49.494      92.256
  C       12.886      48.281      94.463
  O       13.088      48.180      93.063
  O       14.943      49.878      92.902
  O       13.624      49.308      90.779
  H       15.525      50.283      92.232
  H       12.596      47.327      94.851
  H       12.115      48.996      94.661
  H       13.794      48.596      94.933

 6  7  8  9  10  11  12  13  14  15  25  28  32  33  34  35 0
 6-311+G(2d,p)
 ****
 36  37  40 0
 6-311+G(2d,p)
 ****
 1  2  3  4  5  16  17  18  19  20  21  22  23  24 0
 3-21G
 ****
 26  27  29  30  31  38  39 41  42  43  44  45  46  47  48 0
 3-21G
 ****


