%nproc=1
%NoSave
%Mem=1900MB
#P OB98/GEN NMR

erre ene a

0 1
  C      381.988     110.512      11.598
  O      381.311     111.009      12.738
  H      382.278     109.473      11.770
  H      381.310     110.552      10.744
  H      382.873     111.115      11.379
  P      382.195     111.327      14.037
  C      382.109     113.921      14.029
  O      381.651     112.718      14.630
  C      381.059     115.020      14.159
  O      379.954     114.717      13.254
  C      380.467     115.168      15.573
  O      380.271     116.561      15.841
  C      379.113     114.488      15.465
  O      378.179     114.977      16.417
  C      378.740     114.807      14.017
  N      373.738     113.901      13.823
  C      374.440     115.015      14.122
  N      375.779     115.186      14.095
  C      376.391     114.074      13.650
  C      375.808     112.867      13.300
  C      374.408     112.800      13.417
  N      373.687     111.645      13.181
  N      376.777     111.948      12.944
  C      377.924     112.582      13.099
  N      377.743     113.868      13.529
  O      383.615     111.720      13.402
  O      382.315     110.213      15.024
  H      378.053     115.935      16.270
  H      384.149     110.915      13.273
  H      373.858     115.877      14.432
  H      378.904     112.149      12.953
  H      378.328     115.815      13.900
  H      379.229     113.411      15.610
  H      381.095     114.728      16.356
  H      381.496     115.967      13.824
  H      382.302     113.740      12.965
  H      372.702     111.664      13.391
  H      374.183     110.795      12.987
  H      383.043     114.232      14.509
  P      380.069     117.007      17.370
  C      381.875     118.881      17.409
  O      380.493     118.540      17.517
  O      381.240     116.220      18.132
  O      378.722     116.661      17.925
  H      380.954     115.978      19.031
  H      381.992     119.938      17.529
  H      382.240     118.589      16.447
  H      382.429     118.372      18.170

 6  7  8  9  10  11  12  13  14  15  25  28  32  33  34  35 0
 6-311+G(2d,p)
 ****
 36  39  40 0
 6-311+G(2d,p)
 ****
 1  2  3  4  5  16  17  18  19  20  21  22  23  24 0
 3-21G
 ****
 26  27  29  30  31  37  38  41  42  43  44  45  46  47 0
 3-21G
 ****
 48 0
 3-21G
 ****


