%nproc=1
%NoSave
%Mem=1900MB
#P OB98/GEN NMR

erre ene a

0 1
  C        1.936     301.947     642.935
  O        0.535     302.074     643.048
  H        2.377     302.947     642.928
  H        2.199     301.439     642.001
  H        2.337     301.394     643.789
  P       -0.312     300.709     643.040
  C       -1.199     301.387     645.378
  O       -1.530     300.987     644.053
  C       -2.426     301.950     646.093
  O       -2.784     303.230     645.546
  C       -3.677     301.078     645.985
  O       -3.650     300.042     646.957
  C       -4.770     302.093     646.271
  O       -4.891     302.286     647.694
  C       -4.229     303.372     645.613
  N       -7.325     306.363     642.796
  C       -7.176     306.226     644.128
  N       -6.377     305.371     644.809
  C       -5.666     304.614     643.962
  C       -5.714     304.627     642.577
  C       -6.583     305.564     641.991
  N       -6.738     305.691     640.616
  N       -4.849     303.698     642.039
  C       -4.251     303.164     643.091
  N       -4.732     303.657     644.274
  O        0.469     299.460     643.276
  O       -1.029     300.806     641.610
  H       -5.172     301.436     648.074
  H       -1.327     301.720     641.439
  H       -7.788     306.888     644.741
  H       -3.434     302.436     643.044
  H       -4.440     304.257     646.224
  H       -5.751     301.769     645.914
  H       -3.805     300.680     644.961
  H       -2.161     302.114     647.157
  H       -0.401     302.148     645.362
  H       -7.511     306.237     640.298
  H       -6.279     305.011     640.033
  H       -0.823     300.511     645.910
  P       -4.595     298.758     646.832
  C       -3.011     297.525     648.445
  O       -4.348     297.932     648.190
  O       -4.434     297.989     645.566
  O       -6.076     299.334     647.027
  H       -6.735     298.691     646.710
  H       -2.972     296.988     649.370
  H       -2.381     298.388     648.507
  H       -2.673     296.893     647.651

 6  7  8  9  10  11  12  13  14  15  25  28  32  33  34  35 0
 6-311+G(2d,p)
 ****
 36  39  40 0
 6-311+G(2d,p)
 ****
 1  2  3  4  5  16  17  18  19  20  21  22  23  24 0
 3-21G
 ****
 26  27  29  30  31  37  38  41  42  43  44  45  46  47 0
 3-21G
 ****
 48 0
 3-21G
 ****


