%nproc=1
%NoSave
%Mem=1900MB
#P OB98/GEN NMR

erre ene a

0 1
  C      268.741    -390.227    -205.999
  O      268.060    -389.038    -206.354
  H      268.955    -390.796    -206.906
  H      268.115    -390.833    -205.340
  H      269.688    -389.993    -205.497
  P      267.848    -387.938    -205.209
  C      269.890    -386.507    -205.963
  O      268.483    -386.567    -205.767
  C      270.250    -385.278    -206.801
  O      269.883    -385.548    -208.193
  C      269.516    -383.996    -206.381
  O      270.408    -382.885    -206.561
  C      268.385    -383.890    -207.389
  O      267.882    -382.572    -207.562
  C      269.072    -384.447    -208.643
  N      268.110    -384.884    -209.663
  C      268.400    -384.576    -210.991
  O      269.439    -384.041    -211.380
  N      267.423    -384.912    -211.898
  C      266.216    -385.484    -211.614
  O      265.371    -385.739    -212.471
  C      265.965    -385.776    -210.193
  C      266.905    -385.465    -209.298
  O      268.886    -388.391    -204.078
  O      266.455    -387.807    -204.685
  H      268.464    -389.016    -203.454
  H      267.184    -382.615    -208.253
  H      267.617    -384.694    -212.866
  H      265.014    -386.221    -209.931
  H      266.746    -385.649    -208.235
  H      269.742    -383.695    -209.079
  H      267.550    -384.538    -207.086
  H      269.147    -384.008    -205.350
  H      271.335    -385.139    -206.777
  H      270.223    -387.408    -206.482
  H      270.390    -386.458    -204.987
  P      270.346    -381.702    -205.478
  C      272.450    -382.434    -204.082
  O      271.858    -381.494    -204.978
  O      269.619    -382.441    -204.251
  O      269.653    -380.478    -205.984
  H      269.873    -383.383    -204.177
  H      273.453    -382.134    -203.862
  H      272.459    -383.403    -204.536
  H      271.881    -382.470    -203.176

 6  7  8  9  10  11  12  13  14  15  16  27  31  32  33  34  35 0
 6-311+G(2d,p)
 ****
 36  37 0
 6-311+G(2d,p)
 ****
 1  2  3  4  5  17  18  19  20  21  22  23  24  25 0
 3-21G
 ****
 26  28  29  30  38  39  40  41  42  43  44  45 0
 3-21G
 ****


