%nproc=1
%NoSave
%Mem=1900MB
#P OB98/GEN NMR

erre ene a

0 1
  C       73.569     335.232      72.849
  O       74.362     335.974      71.912
  P       74.595     337.560      72.012
  C       77.182     337.660      72.038
  O       75.992     337.903      71.297
  C       78.420     338.025      71.213
  O       78.503     337.189      70.034
  C       78.437     339.443      70.662
  O       78.697     340.410      71.664
  C       79.525     339.335      69.594
  O       80.832     339.503      70.162
  C       79.350     337.889      69.094
  N       78.809     337.815      67.747
  C       79.731     337.859      66.698
  O       80.927     338.034      66.928
  N       79.269     337.714      65.412
  C       77.993     337.645      65.188
  N       77.595     337.486      63.897
  C       76.982     337.735      66.259
  C       77.454     337.815      67.500
  O       74.480     338.101      73.400
  O       73.498     338.210      71.045
  H       73.290     339.114      71.348
  H       80.789     340.292      70.739
  H       75.927     337.714      66.025
  H       76.779     337.869      68.347
  H       80.312     337.360      69.124
  H       79.413     340.095      68.812
  H       77.475     339.657      70.179
  H       79.308     337.845      71.832
  H       78.316     337.418      63.190
  H       77.224     336.594      72.285
  H       76.629     337.399      63.619
  H       77.150     338.233      72.971
  P       77.568     341.519      71.915
  C       77.938     341.187      74.463
  O       77.773     342.099      73.395
  O       76.218     340.664      72.022
  O       77.469     342.556      70.843
  H       75.491     341.144      71.583
  H       78.525     341.669      75.247
  H       78.453     340.276      74.142
  H       76.957     340.925      74.868
  H       73.564     334.198      72.572
  H       72.567     335.607      72.844
  H       73.984     335.337      73.830

 3  4  5  6  7  8  9  10  11  12  13  24  27  28  29  30  32 0
 6-311+G(2d,p)
 ****
 34  35 0
 6-311+G(2d,p)
 ****
 1  2  14  15  16  17  18  19  20  21  22  23  25  26 0
 3-21G
 ****
 31  33  36  37  38  39  40  41  42  43  44  45  46 0
 3-21G
 ****


