%nproc=1
%NoSave
%Mem=1900MB
#P OB98/GEN NMR

erre ene a

0 1
  C      -98.984     -64.513     226.475
  O      -98.975     -64.903     225.117
  H      -98.436     -63.573     226.574
  H      -98.494     -65.272     227.090
  H     -100.011     -64.362     226.816
  P      -99.681     -66.298     224.759
  C     -101.782     -65.104     223.807
  O     -101.261     -66.026     224.755
  C     -103.302     -65.067     223.915
  O     -103.839     -66.401     223.764
  C     -103.819     -64.571     225.258
  O     -103.759     -63.161     225.370
  C     -105.243     -65.101     225.231
  O     -106.120     -64.217     224.515
  C     -105.084     -66.446     224.489
  N     -105.149     -67.586     225.397
  C     -105.679     -68.755     224.861
  O     -106.077     -68.845     223.700
  N     -105.777     -69.816     225.720
  C     -105.438     -69.809     227.041
  O     -105.617     -70.772     227.775
  C     -104.868     -68.550     227.549
  C     -104.760     -67.508     226.719
  O      -99.447     -67.171     226.080
  O      -99.159     -66.975     223.537
  H      -98.726     -67.811     225.933
  H     -105.963     -63.324     224.880
  H     -106.169     -70.668     225.354
  H     -104.582     -68.511     228.593
  H     -104.363     -66.564     227.076
  H     -105.880     -66.564     223.742
  H     -105.651     -65.205     226.237
  H     -103.276     -65.059     226.076
  H     -103.693     -64.445     223.097
  H     -101.503     -65.422     222.798
  H     -101.352     -64.116     223.998
  P     -103.173     -62.525     226.719
  C     -101.274     -60.902     225.904
  O     -101.637     -62.168     226.425
  O     -103.100     -63.812     227.663
  O     -103.987     -61.396     227.253
  H     -102.865     -64.624     227.182
  H     -100.212     -60.859     225.779
  H     -101.584     -60.135     226.582
  H     -101.751     -60.756     224.957

 6  7  8  9  10  11  12  13  14  15  16  27  31  32  33  34  35 0
 6-311+G(2d,p)
 ****
 36  37 0
 6-311+G(2d,p)
 ****
 1  2  3  4  5  17  18  19  20  21  22  23  24  25 0
 3-21G
 ****
 26  28  29  30  38  39  40  41  42  43  44  45 0
 3-21G
 ****


