%nproc=1
%NoSave
%Mem=1900MB
#P OB98/GEN NMR

erre ene a

0 1
  C     -919.262    -895.240    -157.809
  O     -918.170    -894.570    -157.221
  H     -919.930    -895.570    -157.017
  H     -918.905    -896.110    -158.369
  H     -919.804    -894.570    -158.483
  P     -917.062    -893.970    -158.234
  C     -915.134    -895.640    -157.729
  O     -915.638    -894.330    -157.591
  C     -914.678    -896.180    -156.360
  O     -913.465    -895.470    -155.964
  C     -915.719    -895.970    -155.244
  O     -915.574    -897.020    -154.277
  C     -915.231    -894.660    -154.617
  O     -915.805    -894.480    -153.354
  C     -913.719    -894.900    -154.670
  N     -911.898    -891.630    -151.199
  C     -912.563    -892.810    -151.072
  N     -913.014    -893.620    -152.044
  C     -912.684    -893.130    -153.265
  C     -912.020    -891.950    -153.552
  C     -911.619    -891.170    -152.436
  N     -910.972    -889.970    -152.555
  N     -911.888    -891.790    -154.919
  C     -912.474    -892.850    -155.442
  N     -912.951    -893.690    -154.484
  O     -917.204    -892.390    -158.014
  O     -917.228    -894.340    -159.668
  H     -915.663    -893.570    -153.020
  H     -917.828    -892.010    -158.659
  H     -912.753    -893.130    -150.048
  H     -912.578    -893.040    -156.498
  H     -913.391    -895.620    -153.904
  H     -915.527    -893.800    -155.234
  H     -916.753    -895.930    -155.608
  H     -914.415    -897.240    -156.465
  H     -914.294    -895.620    -158.425
  H     -915.919    -896.290    -158.132
  H     -910.748    -889.450    -151.719
  H     -910.783    -889.600    -153.487
  P     -916.535    -898.310    -154.393
  C     -918.037    -898.050    -152.264
  O     -917.014    -898.780    -152.930
  O     -915.491    -899.470    -154.787
  O     -917.630    -898.220    -155.402
  H     -915.874    -900.000    -155.534
  H     -918.230    -898.496    -151.311
  H     -918.930    -898.068    -152.854
  H     -917.721    -897.037    -152.127

 6  7  8  9  10  11  12  13  14  15  25  28  32  33  34  35 0
 6-311+G(2d,p)
 ****
 36  37  40 0
 6-311+G(2d,p)
 ****
 1  2  3  4  5  16  17  18  19  20  21  22  23  24 0
 3-21G
 ****
 26  27  29  30  31  38  39 41  42  43  44  45  46  47  48 0
 3-21G
 ****


