%nproc=1
%NoSave
%Mem=1900MB
#P OB98/GEN NMR

erre ene a

0 1
  C      701.254    -923.397     479.844
  O      701.880    -922.163     480.176
  P      702.847    -921.490     479.069
  C      701.122    -919.589     478.591
  O      701.861    -920.676     478.074
  C      701.690    -918.264     478.074
  O      701.590    -918.199     476.627
  C      700.996    -917.034     478.613
  O      701.473    -916.690     479.897
  C      701.336    -915.997     477.557
  O      702.670    -915.464     477.757
  C      701.288    -916.836     476.267
  N      699.027    -916.495     471.747
  C      700.376    -916.362     472.075
  N      701.235    -916.127     471.071
  N      700.818    -916.428     473.324
  C      699.825    -916.632     474.216
  C      698.463    -916.772     474.012
  C      698.002    -916.756     472.654
  O      696.860    -916.972     472.281
  N      697.794    -916.989     475.190
  C      698.741    -916.952     476.099
  N      700.008    -916.781     475.582
  O      703.289    -922.766     478.188
  O      703.994    -920.722     479.602
  H      702.933    -914.955     476.979
  H      704.174    -923.063     478.463
  H      698.733    -916.458     470.786
  H      698.592    -917.081     477.171
  H      702.049    -916.524     475.535
  H      700.660    -915.127     477.565
  H      700.947    -916.038     470.102
  H      699.904    -917.183     478.616
  H      702.206    -916.035     471.315
  H      702.762    -918.244     478.322
  H      701.167    -919.601     479.693
  H      700.082    -919.699     478.288
  P      700.403    -916.243     481.013
  C      700.588    -918.206     482.724
  O      699.823    -917.573     481.706
  O      699.174    -915.719     480.130
  O      700.894    -915.210     481.972
  H      698.755    -914.944     480.599
  H      699.895    -918.716     483.399
  H      701.190    -917.469     483.282
  H      701.252    -918.945     482.278
  H      700.648    -923.722     480.664
  H      702.003    -924.133     479.640
  H      700.640    -923.264     478.978

 3  4  5  6  7  8  9  10  11  12  23  26  30  31 0
 6-311+G(2d,p)
 ****
 33  35  36  37  38 0
 6-311+G(2d,p)
 ****
 1  2  13  14  15  16  17  18  19  20  21  22  24  25 0
 3-21G
 ****
 27  28  29  32  34  39  40  41  42  43  44  45  46  47  48  49 0
 3-21G
 ****


