%nproc=1
%NoSave
%Mem=1900MB
#P OB98/GEN NMR

erre ene a

0 1
  C      -34.884    -162.071    -193.208
  O      -35.855    -161.093    -192.824
  P      -35.383    -159.559    -192.885
  C      -34.155    -159.394    -190.602
  O      -34.041    -159.422    -192.018
  C      -32.803    -159.677    -189.941
  O      -31.713    -159.038    -190.629
  C      -32.727    -159.197    -188.496
  O      -33.375    -160.123    -187.642
  C      -31.222    -159.126    -188.275
  O      -30.682    -160.416    -187.915
  C      -30.699    -158.690    -189.652
  N      -27.393    -155.054    -188.389
  C      -27.473    -156.369    -187.963
  N      -26.523    -156.776    -187.097
  N      -28.402    -157.203    -188.351
  C      -29.281    -156.660    -189.224
  C      -29.292    -155.383    -189.742
  C      -28.264    -154.468    -189.302
  O      -28.135    -153.305    -189.667
  N      -30.311    -155.215    -190.648
  C      -30.989    -156.349    -190.576
  N      -30.369    -157.282    -189.777
  O      -36.488    -158.798    -192.012
  O      -35.307    -159.016    -194.273
  H      -29.734    -160.318    -187.711
  H      -37.048    -158.250    -192.595
  H      -26.663    -154.453    -188.053
  H      -31.909    -156.553    -191.100
  H      -29.789    -159.240    -189.927
  H      -30.961    -158.449    -187.458
  H      -25.779    -156.188    -186.754
  H      -33.169    -158.197    -188.407
  H      -26.559    -157.736    -186.775
  H      -32.641    -160.763    -189.979
  H      -34.891    -160.132    -190.274
  H      -34.539    -158.412    -190.300
  P      -34.938    -159.910    -187.351
  C      -34.463    -158.350    -185.328
  O      -35.097    -158.512    -186.582
  O      -35.249    -161.009    -186.226
  O      -35.817    -160.089    -188.543
  H      -36.092    -161.457    -186.440
  H      -34.210    -157.294    -185.195
  H      -33.547    -158.944    -185.254
  H      -35.155    -158.653    -184.535
  H      -35.311    -163.049    -193.127
  H      -34.032    -162.000    -192.564
  H      -34.582    -161.896    -194.220

 3  4  5  6  7  8  9  10  11  12  23  26  30  31 0
 6-311+G(2d,p)
 ****
 33  35  36  37  38 0
 6-311+G(2d,p)
 ****
 1  2  13  14  15  16  17  18  19  20  21  22  24  25 0
 3-21G
 ****
 27  28  29  32  34  39  40  41  42  43  44  45  46  47  48  49 0
 3-21G
 ****


