%nproc=1
%NoSave
%Mem=1900MB
#P OB98/GEN NMR

erre ene a

0 1
  C       36.503     -39.064     -39.069
  O       37.163     -37.876     -39.461
  P       37.615     -36.803     -38.362
  C       35.912     -34.903     -38.663
  O       37.245     -35.341     -38.905
  C       35.823     -33.382     -38.764
  O       36.756     -32.751     -37.857
  C       36.173     -32.830     -40.136
  O       35.153     -33.078     -41.085
  C       36.406     -31.361     -39.809
  O       35.159     -30.655     -39.715
  C       37.075     -31.455     -38.421
  N       38.512     -31.241     -38.481
  C       38.952     -29.944     -38.193
  O       38.141     -29.041     -37.988
  N       40.304     -29.706     -38.156
  C       41.133     -30.641     -38.498
  N       42.459     -30.365     -38.384
  C       40.698     -31.974     -38.965
  C       39.389     -32.210     -38.909
  O       39.015     -36.951     -37.866
  O       36.568     -37.010     -37.167
  H       37.061     -37.101     -36.329
  H       34.769     -30.662     -40.612
  H       41.427     -32.696     -39.303
  H       38.980     -33.168     -39.211
  H       36.636     -30.718     -37.738
  H       37.009     -30.854     -40.569
  H       37.112     -33.278     -40.485
  H       34.807     -33.081     -38.476
  H       42.720     -29.448     -38.043
  H       35.615     -35.224     -37.661
  H       43.163     -31.096     -38.308
  H       35.241     -35.376     -39.388
  P       35.604     -33.722     -42.484
  C       33.926     -32.115     -43.627
  O       34.442     -33.428     -43.544
  O       35.490     -35.297     -42.218
  O       36.980     -33.345     -42.927
  H       36.206     -35.762     -42.689
  H       33.424     -31.996     -44.591
  H       34.721     -31.368     -43.549
  H       33.196     -31.958     -42.829
  H       36.282     -39.652     -39.935
  H       35.593     -38.816     -38.564
  H       37.135     -39.623     -38.411

 3  4  5  6  7  8  9  10  11  12  13  24  27  28  29  30  32 0
 6-311+G(2d,p)
 ****
 34  35 0
 6-311+G(2d,p)
 ****
 1  2  14  15  16  17  18  19  20  21  22  23  25  26 0
 3-21G
 ****
 31  33  36  37  38  39  40  41  42  43  44  45  46 0
 3-21G
 ****


