%nproc=1
%NoSave
%Mem=1900MB
#P OB98/GEN NMR

erre ene a

0 1
  C      542.387     376.358     415.711
  O      542.240     375.962     414.356
  P      543.575     375.798     413.482
  C      542.634     376.824     411.292
  O      543.120     375.662     411.950
  C      541.751     376.450     410.101
  O      542.592     375.912     409.044
  C      540.675     375.398     410.413
  O      539.536     375.727     409.614
  C      541.334     374.118     409.934
  O      540.436     373.042     409.745
  C      542.039     374.632     408.676
  N      543.664     371.781     404.755
  C      542.613     372.625     404.881
  N      542.247     373.349     405.961
  C      543.106     373.158     406.974
  C      544.208     372.321     407.000
  C      544.482     371.607     405.818
  N      545.551     370.744     405.697
  N      544.831     372.370     408.230
  C      544.111     373.214     408.933
  N      543.076     373.734     408.216
  O      544.064     374.319     413.849
  O      544.637     376.821     413.749
  H      540.933     372.204     409.628
  H      545.037     374.277     413.920
  H      541.981     372.719     404.006
  H      544.298     373.479     409.972
  H      541.333     374.784     407.851
  H      542.067     373.791     410.679
  H      540.381     375.377     411.469
  H      541.282     377.364     409.715
  H      543.482     377.410     410.919
  H      545.546     370.136     404.892
  H      546.025     370.472     406.550
  H      542.088     377.448     412.008
  P      538.081     375.720     410.289
  C      537.414     373.636     408.946
  O      537.146     374.999     409.195
  O      537.658     377.255     410.114
  O      538.013     375.210     411.690
  H      537.777     377.560     409.195
  H      536.651     373.246     408.263
  H      537.376     373.057     409.878
  H      538.395     373.525     408.473
  H      541.422     376.427     416.169
  H      542.871     377.311     415.753
  H      542.978     375.634     416.232

 3  4  5  6  7  8  9  10  11  12  22  25  29  30  31  32 0
 6-311+G(2d,p)
 ****
 33  36  37 0
 6-311+G(2d,p)
 ****
 1  2  13  14  15  16  17  18  19  20  21  23  24  26 0
 3-21G
 ****
 27  28  34  35  38  39  40  41  42  43  44  45  46  47  48 0
 3-21G
 ****


