%nproc=1
%NoSave
%Mem=1900MB
#P OB98/GEN NMR

erre ene a

0 1
  C      -27.041    -550.504      57.615
  O      -25.641    -550.328      57.588
  H      -27.322    -551.144      58.453
  H      -27.517    -549.527      57.741
  H      -27.385    -550.946      56.675
  P      -24.747    -551.653      57.444
  C      -23.102    -550.852      55.608
  O      -23.279    -551.187      56.979
  C      -22.136    -549.676      55.483
  O      -22.814    -548.474      55.943
  C      -20.833    -549.821      56.284
  O      -19.701    -549.730      55.414
  C      -20.823    -548.622      57.219
  O      -19.533    -548.024      57.356
  C      -21.816    -547.663      56.571
  N      -20.811    -544.050      60.029
  C      -20.119    -544.470      58.948
  N      -20.489    -545.360      58.005
  C      -21.732    -545.818      58.244
  C      -22.568    -545.470      59.294
  C      -22.056    -544.553      60.226
  N      -22.743    -544.168      61.358
  N      -23.766    -546.158      59.209
  C      -23.636    -546.939      58.161
  N      -22.416    -546.784      57.557
  O      -25.350    -552.363      56.139
  O      -24.773    -552.562      58.629
  H      -18.975    -548.668      57.838
  H      -25.506    -553.306      56.325
  H      -19.132    -544.035      58.825
  H      -24.363    -547.666      57.822
  H      -21.345    -547.042      55.798
  H      -21.167    -548.942      58.210
  H      -20.793    -550.762      56.847
  H      -21.909    -549.528      54.419
  H      -24.065    -550.570      55.168
  H      -22.255    -543.600      62.030
  H      -23.624    -544.618      61.567
  H      -22.716    -551.725      55.076
  P      -18.540    -550.832      55.615
  C      -18.687    -551.745      53.181
  O      -17.896    -551.111      54.174
  O      -19.371    -552.169      55.909
  O      -17.585    -550.512      56.713
  H      -18.835    -552.786      56.445
  H      -18.113    -551.856      52.285
  H      -19.552    -551.148      52.979
  H      -18.993    -552.709      53.531

 6  7  8  9  10  11  12  13  14  15  25  28  32  33  34  35 0
 6-311+G(2d,p)
 ****
 36  39  40 0
 6-311+G(2d,p)
 ****
 1  2  3  4  5  16  17  18  19  20  21  22  23  24 0
 3-21G
 ****
 26  27  29  30  31  37  38  41  42  43  44  45  46  47  48 0
 3-21G
 ****


