%nproc=1
%NoSave
%Mem=1900MB
#P OB98/GEN NMR

erre ene a

0 1
  C      176.812     263.288      28.488
  O      176.668     262.975      27.117
  H      176.053     264.023      28.762
  H      177.804     263.711      28.672
  H      176.672     262.389      29.097
  P      177.687     261.890      26.520
  C      176.027     260.409      25.157
  O      177.047     261.397      25.134
  C      175.222     260.440      23.854
  O      174.592     261.747      23.727
  C      176.073     260.234      22.591
  O      175.242     259.626      21.590
  C      176.387     261.667      22.192
  O      176.890     261.729      20.877
  C      175.028     262.307      22.466
  N      176.000     266.624      19.907
  C      175.982     265.332      19.515
  N      175.703     264.236      20.250
  C      175.395     264.579      21.513
  C      175.360     265.853      22.056
  C      175.685     266.911      21.193
  N      175.713     268.229      21.588
  N      175.005     265.804      23.393
  C      174.828     264.522      23.648
  N      175.058     263.747      22.549
  O      177.501     260.634      27.494
  O      179.110     262.327      26.434
  H      176.280     261.290      20.248
  H      178.185     260.652      28.193
  H      176.225     265.153      18.470
  H      174.544     264.106      24.608
  H      174.287     262.030      21.707
  H      177.157     262.094      22.843
  H      176.956     259.610      22.759
  H      174.413     259.703      23.917
  H      175.367     260.613      26.010
  H      176.480     259.419      25.284
  H      175.972     268.927      20.911
  H      175.498     268.457      22.549
  P      175.599     258.148      21.069
  C      173.249     257.004      21.224
  O      174.286     257.510      20.397
  O      175.699     257.324      22.441
  O      176.864     258.022      20.282
  H      176.311     256.574      22.326
  H      172.460     256.621      20.612
  H      172.871     257.790      21.843
  H      173.635     256.219      21.841

 6  7  8  9  10  11  12  13  14  15  25  28  32  33  34  35 0
 6-311+G(2d,p)
 ****
 36  37  40 0
 6-311+G(2d,p)
 ****
 1  2  3  4  5  16  17  18  19  20  21  22  23  24 0
 3-21G
 ****
 26  27  29  30  31  38  39 41  42  43  44  45  46  47  48 0
 3-21G
 ****


