%nproc=1
%NoSave
%Mem=1900MB
#P OB98/GEN NMR

erre ene a

0 1
  C     1145.820    -302.845    -904.293
  O     1145.953    -303.187    -902.921
  H     1145.414    -301.837    -904.371
  H     1145.165    -303.539    -904.807
  H     1146.809    -302.847    -904.768
  P     1146.304    -304.702    -902.550
  C     1144.196    -305.745    -901.457
  O     1144.908    -305.510    -902.675
  C     1143.623    -304.446    -900.898
  O     1143.106    -303.625    -901.969
  C     1142.439    -304.658    -899.958
  O     1142.787    -305.238    -898.717
  C     1141.753    -303.280    -899.968
  O     1142.315    -302.363    -899.030
  C     1142.066    -302.806    -901.421
  N     1140.864    -302.808    -902.256
  C     1140.100    -301.651    -902.217
  O     1140.375    -300.663    -901.546
  N     1138.963    -301.671    -903.004
  C     1138.515    -302.728    -903.727
  O     1137.469    -302.682    -904.365
  C     1139.346    -303.937    -903.693
  C     1140.466    -303.933    -902.973
  O     1147.014    -304.912    -901.240
  O     1147.132    -305.224    -903.820
  H     1142.303    -302.797    -898.155
  H     1147.628    -306.060    -903.596
  H     1138.399    -300.823    -903.005
  H     1139.015    -304.799    -904.256
  H     1141.097    -304.811    -902.916
  H     1142.448    -301.772    -901.399
  H     1140.688    -303.368    -899.754
  H     1141.747    -305.348    -900.443
  H     1144.439    -303.881    -900.399
  H     1144.920    -306.167    -900.732
  H     1143.404    -306.474    -901.629
  P     1141.739    -306.044    -897.792
  C     1141.120    -304.995    -895.489
  O     1140.920    -304.968    -896.898
  O     1142.235    -307.300    -897.151
  O     1140.624    -306.481    -898.907
  H     1140.287    -307.346    -898.642
  H     1140.521    -304.237    -895.029
  H     1142.152    -304.815    -895.272
  H     1140.837    -305.953    -895.107

 6  7  8  9  10  11  12  13  14  15  16  26  31  32  33  34  35 0
 6-311+G(2d,p)
 ****
 36  37 0
 6-311+G(2d,p)
 ****
 1  2  3  4  5  17  18  19  20  21  22  23  24  25 0
 3-21G
 ****
 27  28  29  30  38  39  40  41  42  43  44  45 0
 3-21G
 ****


