%nproc=1
%NoSave
%Mem=1900MB
#P OB98/GEN NMR

erre ene a

0 1
  C     -171.220     204.096    -218.528
  O     -170.804     205.312    -217.932
  P     -170.677     206.684    -218.738
  C     -171.443     208.193    -216.767
  O     -170.406     207.868    -217.680
  C     -171.137     209.457    -215.935
  O     -170.069     209.175    -215.006
  C     -170.623     210.575    -216.860
  O     -171.538     211.393    -217.564
  C     -169.588     211.331    -216.022
  O     -170.137     212.516    -215.424
  C     -169.208     210.317    -214.936
  N     -164.447     211.449    -216.330
  C     -165.527     212.296    -216.125
  N     -165.346     213.581    -216.528
  N     -166.665     211.914    -215.601
  C     -166.714     210.586    -215.341
  C     -165.718     209.652    -215.483
  C     -164.451     210.093    -216.025
  O     -163.506     209.357    -216.298
  N     -166.156     208.372    -215.188
  C     -167.440     208.538    -214.900
  N     -167.827     209.856    -215.015
  O     -171.670     206.917    -219.837
  O     -169.230     206.513    -219.435
  H     -170.277     213.165    -216.135
  H     -169.266     206.951    -220.310
  H     -163.622     211.780    -216.809
  H     -168.110     207.745    -214.644
  H     -169.342     210.753    -213.932
  H     -168.744     211.654    -216.647
  H     -164.548     213.869    -217.062
  H     -170.039     210.085    -217.649
  H     -166.164     214.182    -216.550
  H     -171.994     209.747    -215.330
  H     -171.587     207.334    -216.111
  H     -172.377     208.342    -217.309
  P     -171.517     211.710    -219.128
  C     -174.053     211.565    -219.431
  O     -172.903     212.393    -219.525
  O     -171.614     210.262    -219.817
  O     -170.296     212.425    -219.622
  H     -171.261     210.308    -220.741
  H     -174.872     212.015    -219.997
  H     -174.351     211.489    -218.383
  H     -173.847     210.570    -219.835
  H     -171.226     203.321    -217.790
  H     -170.543     203.834    -219.314
  H     -172.205     204.214    -218.930

 3  4  5  6  7  8  9  10  11  12  23  26  30  31 0
 6-311+G(2d,p)
 ****
 33  35  36  37  38 0
 6-311+G(2d,p)
 ****
 1  2  13  14  15  16  17  18  19  20  21  22  24  25 0
 3-21G
 ****
 27  28  29  32  34  39  40  41  42  43  44  45  46  47  48  49 0
 3-21G
 ****


