%nproc=1
%NoSave
%Mem=1900MB
#P OB98/GEN NMR

erre ene a

0 1
  C     -158.635     365.247     382.004
  O     -159.437     366.369     382.310
  H     -158.203     364.861     382.931
  H     -157.825     365.533     381.329
  H     -159.244     364.465     381.544
  P     -160.077     367.155     381.063
  C     -158.972     368.647     379.230
  O     -158.851     368.032     380.504
  C     -157.677     369.368     378.875
  O     -156.596     368.422     378.709
  C     -157.727     370.153     377.566
  O     -158.408     371.392     377.680
  C     -156.242     370.345     377.319
  O     -155.731     371.354     378.210
  C     -155.701     368.947     377.690
  N     -155.637     368.036     376.544
  C     -154.557     368.204     375.668
  O     -153.718     369.079     375.866
  N     -154.475     367.393     374.561
  C     -155.374     366.481     374.355
  N     -155.238     365.714     373.240
  C     -156.518     366.264     375.256
  C     -156.588     367.063     376.317
  O     -161.008     368.255     381.757
  O     -160.765     366.313     380.041
  H     -156.045     371.122     379.103
  H     -161.340     368.893     381.077
  H     -157.251     365.498     375.036
  H     -157.403     366.962     377.026
  H     -154.702     369.017     378.135
  H     -156.010     370.670     376.306
  H     -158.146     369.551     376.753
  H     -157.415     370.019     379.720
  H     -154.476     365.928     372.611
  H     -159.802     369.361     379.271
  H     -155.961     365.084     372.916
  H     -159.189     367.893     378.469
  P     -159.299     371.859     376.427
  C     -158.758     372.328     373.924
  O     -158.280     372.275     375.262
  O     -159.899     373.258     376.910
  O     -160.370     370.895     376.024
  H     -160.798     373.395     376.552
  H     -157.961     372.619     373.272
  H     -159.553     373.042     373.857
  H     -159.120     371.363     373.636

 6  7  8  9  10  11  12  13  14  15  16  26  30  31  32  33  35 0
 6-311+G(2d,p)
 ****
 37  38 0
 6-311+G(2d,p)
 ****
 1  2  3  4  5  17  18  19  20  21  22  23  24  25 0
 3-21G
 ****
 27  28  29  34  36  39  40  41  42  43  44  45  46 0
 3-21G
 ****


