%nproc=1
%NoSave
%Mem=1900MB
#P OB98/GEN NMR

erre ene a

0 1
  C     -614.774     -76.198      47.858
  O     -614.773     -75.585      46.587
  P     -615.680     -74.273      46.384
  C     -617.944     -75.347      45.645
  O     -617.205     -74.695      46.673
  C     -619.443     -75.162      45.906
  O     -619.834     -75.828      47.123
  C     -619.850     -73.704      46.087
  O     -619.959     -73.027      44.845
  C     -621.185     -73.850      46.816
  O     -622.261     -74.087      45.883
  C     -620.929     -75.093      47.696
  N     -620.688     -74.751      49.098
  C     -621.810     -74.730      49.922
  O     -622.956     -74.958      49.507
  N     -621.587     -74.396      51.226
  C     -620.390     -74.042      51.778
  O     -620.256     -73.701      52.938
  C     -619.238     -74.050      50.848
  C     -619.439     -74.394      49.570
  O     -615.648     -74.025      44.805
  O     -615.212     -73.079      47.149
  H     -623.030     -74.366      46.419
  H     -615.654     -73.057      44.623
  H     -622.385     -74.403      51.846
  H     -618.277     -73.777      51.246
  H     -618.610     -74.403      48.876
  H     -621.799     -75.773      47.652
  H     -621.450     -72.949      47.384
  H     -619.139     -73.196      46.754
  H     -620.000     -75.611      45.068
  H     -617.700     -76.410      45.638
  H     -617.669     -74.914      44.675
  P     -619.366     -71.536      44.769
  C     -621.675     -70.544      45.505
  O     -620.287     -70.672      45.760
  O     -619.816     -71.112      43.292
  O     -617.892     -71.484      45.022
  H     -620.661     -71.525      43.038
  H     -622.092     -71.463      45.072
  H     -621.834     -69.709      44.811
  H     -622.188     -70.331      46.442
  H     -614.130     -77.052      47.842
  H     -615.769     -76.506      48.105
  H     -614.424     -75.501      48.590

 3  4  5  6  7  8  9  10  11  12  13  23  28  29  30  31  32 0
 6-311+G(2d,p)
 ****
 33  34 0
 6-311+G(2d,p)
 ****
 1  2  14  15  16  17  18  19  20  21  22  24  25  26 0
 3-21G
 ****
 27  35  36  37  38  39  40  41  42  43  44  45 0
 3-21G
 ****


