%nproc=1
%NoSave
%Mem=1900MB
#P OB98/GEN NMR

erre ene a

0 1
  C     -146.575    -176.294     180.020
  O     -145.651    -176.977     179.164
  P     -144.561    -177.907     179.895
  C     -143.283    -178.974     177.901
  O     -143.271    -178.004     178.941
  C     -143.948    -178.438     176.630
  O     -143.240    -177.257     176.182
  C     -143.971    -179.422     175.452
  O     -145.204    -179.258     174.740
  C     -142.856    -178.916     174.554
  O     -143.024    -179.334     173.201
  C     -142.984    -177.411     174.777
  N     -140.571    -175.113     170.972
  C     -141.842    -175.653     171.012
  N     -142.560    -175.590     169.871
  N     -142.361    -176.204     172.079
  C     -141.541    -176.168     173.157
  C     -140.265    -175.652     173.242
  C     -139.688    -175.085     172.043
  O     -138.549    -174.637     171.928
  N     -139.748    -175.802     174.508
  C     -140.706    -176.411     175.180
  N     -141.807    -176.660     174.401
  O     -145.216    -179.365     179.816
  O     -144.283    -177.511     181.306
  H     -143.967    -179.219     172.981
  H     -145.297    -179.744     180.713
  H     -140.214    -174.721     170.119
  H     -140.646    -176.715     176.214
  H     -143.840    -176.999     174.230
  H     -141.894    -179.299     174.915
  H     -142.247    -175.123     169.035
  H     -143.839    -180.472     175.735
  H     -143.511    -175.941     169.896
  H     -144.970    -178.127     176.884
  H     -143.822    -179.862     178.240
  H     -142.250    -179.273     177.690
  P     -146.040    -180.597     174.444
  C     -148.219    -179.179     174.329
  O     -147.372    -180.120     173.694
  O     -146.556    -181.038     175.894
  O     -145.256    -181.670     173.767
  H     -146.698    -182.005     175.921
  H     -147.749    -178.726     175.204
  H     -149.138    -179.681     174.641
  H     -148.468    -178.389     173.616
  H     -147.247    -175.710     179.426
  H     -146.037    -175.651     180.685
  H     -147.131    -177.010     180.588

 3  4  5  6  7  8  9  10  11  12  23  26  30  31  33  0
 6-311+G(2d,p)
 ****
 35  36  37  38 0
 6-311+G(2d,p)
 ****
 1  2  13  14  15  16  17  18  19  20  21  22  24  25  27  28  29 0
 3-21G
 ****
 32  34  39  40  41  42  43  44  45  46  47  48  49 0
 3-21G
 ****


