%nproc=1
%NoSave
%Mem=1900MB
#P OB98/GEN NMR

erre ene a

0 1
  C      401.366    -266.589     -33.069
  O      400.279    -267.320     -33.585
  H      401.009    -265.962     -32.247
  H      401.776    -265.942     -33.850
  H      402.151    -267.248     -32.691
  P      400.575    -268.625     -34.461
  C      398.869    -270.320     -33.520
  O      399.208    -269.458     -34.598
  C      397.357    -270.439     -33.340
  O      396.871    -269.332     -32.552
  C      396.602    -270.395     -34.673
  O      396.466    -271.653     -35.313
  C      395.244    -269.844     -34.248
  O      394.351    -270.896     -33.848
  C      395.579    -268.949     -33.054
  N      393.282    -264.407     -32.542
  C      392.831    -265.655     -32.151
  N      391.603    -265.696     -31.593
  N      393.526    -266.755     -32.320
  C      394.689    -266.567     -32.978
  C      395.229    -265.381     -33.432
  C      394.491    -264.164     -33.179
  O      394.853    -263.036     -33.487
  N      396.415    -265.590     -34.100
  C      396.540    -266.902     -34.125
  N      395.560    -267.533     -33.388
  O      401.442    -269.550     -33.476
  O      401.311    -268.387     -35.746
  H      393.525    -270.484     -33.523
  H      402.066    -270.086     -33.996
  H      392.721    -263.595     -32.362
  H      397.342    -267.446     -34.617
  H      394.865    -269.088     -32.231
  H      394.758    -269.319     -35.078
  H      390.993    -264.895     -31.520
  H      397.065    -269.676     -35.356
  H      391.160    -266.610     -31.469
  H      397.128    -271.355     -32.780
  H      399.322    -269.887     -32.624
  H      399.313    -271.308     -33.667
  P      396.942    -271.866     -36.823
  C      397.734    -274.361     -36.610
  O      396.844    -273.418     -37.170
  O      398.519    -271.604     -36.738
  O      396.283    -270.988     -37.835
  H      398.734    -270.696     -37.027
  H      397.493    -275.338     -36.974
  H      397.646    -274.345     -35.544
  H      398.737    -274.114     -36.888

 6  7  8  9  10  11  12  13  14  15  26  29  33  34 0
 6-311+G(2d,p)
 ****
 36  38  39  40  41 0
 6-311+G(2d,p)
 ****
 1  2  3  4  5  16  17  18  19  20  21  22  23  24  25 0
 3-21G
 ****
 27  28  30  31  32  35  37  42  43  44  45  46  47 0
 3-21G
 ****
 48  49 0
 3-21G
 ****


