%nproc=1
%NoSave
%Mem=1900MB
#P OB98/GEN NMR

erre ene a

0 1
  C      565.982     -33.708     501.408
  O      567.164     -33.837     500.633
  P      568.581     -33.293     501.161
  C      568.224     -30.986     500.048
  O      568.412     -31.701     501.256
  C      569.088     -29.719     500.050
  O      568.922     -29.059     498.761
  C      568.722     -28.704     501.137
  O      569.939     -28.078     501.551
  C      567.830     -27.714     500.400
  O      567.770     -26.447     501.044
  C      568.498     -27.703     499.018
  N      567.602     -27.222     497.968
  C      567.818     -25.941     497.466
  O      568.725     -25.230     497.906
  N      567.005     -25.480     496.452
  C      566.001     -26.202     496.049
  N      565.265     -25.731     495.015
  C      565.676     -27.521     496.636
  C      566.518     -27.969     497.561
  O      569.759     -33.757     500.375
  O      568.614     -33.716     502.704
  H      568.684     -26.143     501.200
  H      568.943     -34.644     502.842
  H      564.813     -28.078     496.287
  H      566.368     -28.937     498.031
  H      569.405     -27.081     499.039
  H      566.807     -28.117     500.341
  H      568.241     -29.167     501.998
  H      570.137     -30.014     500.130
  H      565.628     -24.925     494.528
  H      567.172     -30.698     499.975
  H      564.704     -26.360     494.441
  H      568.468     -31.629     499.196
  P      570.035     -27.512     503.060
  C      571.544     -25.557     502.249
  O      570.400     -25.945     502.979
  O      571.415     -28.156     503.555
  O      568.928     -27.905     503.981
  H      571.392     -28.238     504.532
  H      571.632     -24.463     502.303
  H      571.447     -25.842     501.195
  H      572.446     -25.999     502.681
  H      565.158     -34.133     500.875
  H      565.790     -32.672     501.595
  H      566.108     -34.221     502.338

 3  4  5  6  7  8  9  10  11  12  13  23  27  28  29  30  32 0
 6-311+G(2d,p)
 ****
 34  35 0
 6-311+G(2d,p)
 ****
 1  2  14  15  16  17  18  19  20  21  22  24  25  26 0
 3-21G
 ****
 31  33  36  37  38  39  40  41  42  43  44  45  46 0
 3-21G
 ****


