%nproc=1
%NoSave
%Mem=1900MB
#P OB98/GEN NMR

erre ene a

0 1
  C      442.400    -477.621     427.093
  O      441.976    -476.264     427.261
  P      440.410    -475.973     427.082
  C      439.026    -473.824     427.553
  O      440.197    -474.385     426.982
  C      439.244    -472.342     427.860
  O      440.295    -472.145     428.834
  C      439.674    -471.530     426.639
  O      438.578    -471.301     425.772
  C      440.232    -470.284     427.310
  O      439.163    -469.400     427.702
  C      440.910    -470.861     428.565
  N      445.507    -469.168     430.053
  C      444.249    -468.792     430.375
  N      443.077    -469.288     429.938
  C      443.286    -470.294     429.076
  C      444.508    -470.796     428.647
  C      445.657    -470.187     429.170
  N      446.931    -470.567     428.826
  N      444.318    -471.836     427.756
  C      443.010    -471.936     427.628
  N      442.338    -471.040     428.411
  O      439.794    -476.352     428.508
  O      439.775    -476.764     425.976
  H      438.645    -469.190     426.897
  H      439.286    -477.183     428.441
  H      444.180    -467.968     431.091
  H      442.501    -472.646     426.980
  H      440.748    -470.233     429.449
  H      440.905    -469.709     426.666
  H      440.476    -472.060     426.098
  H      438.313    -471.934     428.265
  H      438.765    -474.353     428.477
  H      447.705    -470.025     429.188
  H      447.057    -471.265     428.109
  H      438.192    -473.970     426.854
  P      438.679    -471.865     424.272
  C      437.256    -471.418     422.185
  O      437.675    -470.929     423.443
  O      437.862    -473.238     424.388
  O      440.064    -471.978     423.730
  H      437.029    -473.116     424.882
  H      436.552    -470.703     421.747
  H      436.754    -472.386     422.300
  H      438.112    -471.521     421.518
  H      443.458    -477.684     427.237
  H      442.154    -477.952     426.106
  H      441.905    -478.241     427.811

 3  4  5  6  7  8  9  10  11  12  22  25  29  30  31  32 0
 6-311+G(2d,p)
 ****
 33  36  37 0
 6-311+G(2d,p)
 ****
 1  2  13  14  15  16  17  18  19  20  21  23  24  26 0
 3-21G
 ****
 27  28  34  35  38  39  40  41  42  43  44  45  46  47  48 0
 3-21G
 ****


