%nproc=1
%NoSave
%Mem=1900MB
#P OB98/GEN NMR

erre ene a

0 1
  C     -266.051       6.067     101.384
  O     -267.201       6.457     102.104
  H     -265.777       6.873     100.699
  H     -266.249       5.163     100.799
  H     -265.216       5.893     102.069
  P     -267.876       5.394     103.099
  C     -268.994       3.085     102.722
  O     -268.459       4.255     102.123
  C     -268.764       1.874     101.819
  O     -267.398       1.828     101.353
  C     -268.987       0.522     102.489
  O     -270.358       0.212     102.686
  C     -268.329      -0.391     101.468
  O     -269.196      -0.547     100.330
  C     -267.073       0.434     101.097
  N     -265.886       0.039     101.855
  C     -265.294      -1.185     101.510
  O     -265.771      -1.874     100.607
  N     -264.201      -1.617     102.218
  C     -263.744      -0.899     103.200
  N     -262.687      -1.398     103.901
  C     -264.324       0.401     103.587
  C     -265.381       0.802     102.886
  O     -268.847       5.940     104.094
  O     -266.635       4.633     103.771
  H     -268.698      -1.053      99.662
  H     -267.003       3.971     104.407
  H     -263.911       0.950     104.418
  H     -265.873       1.742     103.122
  H     -266.853       0.346     100.026
  H     -268.117      -1.391     101.856
  H     -268.432       0.454     103.431
  H     -269.402       1.998     100.933
  H     -262.344      -2.312     103.633
  H     -270.061       3.247     102.897
  H     -262.459      -1.051     104.825
  H     -268.503       2.895     103.683
  P     -270.857      -0.053     104.192
  C     -269.967      -1.534     106.145
  O     -270.003      -1.294     104.747
  O     -272.317      -0.664     103.979
  O     -270.859       1.140     105.096
  H     -273.003       0.032     104.032
  H     -269.359      -2.391     106.344
  H     -270.960      -1.711     106.502
  H     -269.555      -0.681     106.643

 6  7  8  9  10  11  12  13  14  15  16  26  30  31  32  33  35 0
 6-311+G(2d,p)
 ****
 37  38 0
 6-311+G(2d,p)
 ****
 1  2  3  4  5  17  18  19  20  21  22  23  24  25 0
 3-21G
 ****
 27  28  29  34  36  39  40  41  42  43  44  45  46 0
 3-21G
 ****


