%nproc=1
%NoSave
%Mem=1900MB
#P OB98/GEN NMR

erre ene a

0 1
  C       82.271     400.542     191.916
  O       82.920     401.743     191.533
  P       82.934     403.012     192.504
  C       81.422     404.313     190.796
  O       81.695     403.947     192.131
  C       79.901     404.284     190.576
  O       79.390     402.957     190.818
  C       79.182     405.246     191.514
  O       78.961     406.496     190.880
  C       77.902     404.500     191.837
  O       76.937     404.669     190.783
  C       78.399     403.034     191.878
  N       79.028     402.544     193.123
  C       78.672     401.298     193.626
  O       77.875     400.538     193.075
  N       79.255     400.947     194.819
  C       80.170     401.695     195.506
  O       80.494     401.489     196.671
  C       80.699     402.861     194.791
  C       80.099     403.236     193.664
  O       84.196     403.849     191.987
  O       83.024     402.703     193.963
  H       76.743     405.625     190.723
  H       84.973     403.681     192.551
  H       78.899     400.105     195.258
  H       81.521     403.401     195.234
  H       80.448     404.124     193.139
  H       77.592     402.336     191.629
  H       77.434     404.886     192.742
  H       79.754     405.375     192.441
  H       79.692     404.543     189.529
  H       81.921     403.623     190.108
  H       81.813     405.313     190.593
  P       79.857     407.758     191.283
  C       77.797     408.531     192.603
  O       79.196     408.327     192.632
  O       80.075     408.764     190.204
  O       81.233     407.092     191.769
  H       81.886     407.117     191.041
  H       77.452     408.746     193.619
  H       77.283     407.640     192.234
  H       77.561     409.389     191.963
  H       82.373     399.817     191.136
  H       81.233     400.737     192.088
  H       82.717     400.166     192.813

 3  4  5  6  7  8  9  10  11  12  13  23  28  29  30  31  32 0
 6-311+G(2d,p)
 ****
 33  34 0
 6-311+G(2d,p)
 ****
 1  2  14  15  16  17  18  19  20  21  22  24  25  26  27 0
 3-21G
 ****
 35  36  37  38  39  40  41  42  43  44  45 0
 3-21G
 ****


