%nproc=1
%NoSave
%Mem=1900MB
#P OB98/GEN NMR

erre ene a

0 1
  C      247.579     318.993    -428.376
  O      247.906     320.153    -429.146
  P      246.734     320.943    -429.906
  C      246.821     319.761    -432.189
  O      246.072     319.953    -430.990
  C      246.444     318.443    -432.905
  O      245.059     318.479    -433.365
  C      247.315     318.125    -434.121
  O      247.467     316.695    -434.170
  C      246.453     318.598    -435.289
  O      246.852     318.042    -436.527
  C      245.067     318.192    -434.778
  N      243.993     318.881    -435.477
  C      243.388     318.213    -436.548
  O      243.854     317.124    -436.925
  N      242.329     318.796    -437.167
  C      241.969     320.006    -436.851
  N      240.895     320.550    -437.483
  C      242.699     320.816    -435.859
  C      243.669     320.191    -435.195
  O      247.089     322.298    -430.422
  O      245.576     321.040    -428.783
  H      246.169     318.241    -437.202
  H      245.102     321.885    -428.895
  H      242.429     321.850    -435.674
  H      244.254     320.690    -434.428
  H      244.915     317.110    -434.884
  H      246.528     319.695    -435.368
  H      248.311     318.583    -434.092
  H      246.525     317.635    -432.177
  H      240.419     319.992    -438.181
  H      247.885     319.740    -431.948
  H      240.526     321.462    -437.253
  H      246.679     320.620    -432.853
  P      248.797     316.034    -433.544
  C      250.304     316.817    -435.513
  O      250.066     316.835    -434.116
  O      248.878     314.644    -434.339
  O      248.773     315.791    -432.063
  H      249.380     314.002    -433.792
  H      251.008     317.616    -435.762
  H      249.381     316.979    -436.077
  H      250.740     315.854    -435.812
  H      248.470     318.592    -427.940
  H      247.130     318.258    -429.011
  H      246.892     319.261    -427.601

 3  4  5  6  7  8  9  10  11  12  13  23  27  28  29  30  32 0
 6-311+G(2d,p)
 ****
 34  35 0
 6-311+G(2d,p)
 ****
 1  2  14  15  16  17  18  19  20  21  22  24  25  26 0
 3-21G
 ****
 31  33  36  37  38  39  40  41  42  43  44  45  46 0
 3-21G
 ****


