%nproc=1
%NoSave
%Mem=1900MB
#P OB98/GEN NMR

erre ene a

0 1
  C      188.931    -316.130     937.109
  O      190.042    -316.994     937.029
  H      188.372    -316.353     938.026
  H      188.271    -316.293     936.253
  H      189.246    -315.083     937.143
  P      191.187    -316.689     935.946
  C      193.206    -315.973     937.391
  O      192.114    -315.538     936.568
  C      194.519    -315.339     936.912
  O      194.438    -313.883     937.091
  C      195.766    -315.824     937.687
  O      196.866    -315.789     936.775
  C      195.910    -314.759     938.747
  O      197.193    -314.778     939.323
  C      195.544    -313.508     937.947
  N      195.205    -312.376     938.804
  C      196.265    -311.608     939.275
  O      197.453    -311.867     939.033
  N      195.935    -310.553     940.084
  C      194.674    -310.234     940.508
  O      194.439    -309.301     941.265
  C      193.599    -311.097     940.013
  C      193.904    -312.112     939.194
  O      190.704    -316.412     934.554
  O      192.139    -317.981     936.000
  H      197.379    -315.656     939.730
  H      192.545    -318.131     935.131
  H      196.697    -309.987     940.429
  H      192.594    -310.893     940.330
  H      193.122    -312.775     938.804
  H      196.380    -313.204     937.293
  H      195.188    -314.912     939.558
  H      195.640    -316.834     938.094
  H      194.628    -315.516     935.834
  H      193.266    -317.061     937.310
  H      193.008    -315.692     938.432
  P      197.755    -317.096     936.436
  C      197.162    -317.155     933.914
  O      197.091    -317.845     935.166
  O      198.006    -317.982     937.607
  O      199.130    -316.513     935.843
  H      199.846    -317.147     936.025
  H      196.693    -317.745     933.155
  H      198.187    -316.990     933.655
  H      196.659    -316.214     933.996

 6  7  8  9  10  11  12  13  14  15  16  26  31  32  33  34  35 0
 6-311+G(2d,p)
 ****
 36  37 0
 6-311+G(2d,p)
 ****
 1  2  3  4  5  17  18  19  20  21  22  23  24  25 0
 3-21G
 ****
 27  28  29  30  38  39  40  41  42  43  44  45 0
 3-21G
 ****


