%nproc=1
%NoSave
%Mem=1900MB
#P OB98/GEN NMR

erre ene a

0 1
  C     -121.164      -1.108     426.705
  O     -120.223      -0.035     426.774
  P     -118.680      -0.410     426.543
  C     -117.662       1.584     427.849
  O     -117.811       0.940     426.592
  C     -116.843       2.878     427.735
  O     -115.431       2.585     427.582
  C     -117.253       3.755     426.549
  O     -117.076       5.118     426.943
  C     -116.216       3.414     425.496
  O     -116.124       4.440     424.512
  C     -114.971       3.228     426.377
  N     -113.913       2.461     425.722
  C     -113.029       3.167     424.905
  O     -113.197       4.372     424.702
  N     -111.999       2.489     424.300
  C     -111.896       1.204     424.456
  N     -110.857       0.587     423.830
  C     -112.842       0.410     425.264
  C     -113.811       1.096     425.865
  O     -118.629      -0.841     425.003
  O     -118.194      -1.510     427.433
  H     -115.678       5.212     424.918
  H     -118.168      -1.696     424.912
  H     -112.727      -0.661     425.350
  H     -114.550       0.603     426.477
  H     -114.549       4.204     426.658
  H     -116.479       2.472     424.998
  H     -118.287       3.594     426.223
  H     -116.963       3.439     428.669
  H     -110.225       1.170     423.292
  H     -117.166       0.911     428.553
  H     -110.682      -0.402     423.881
  H     -118.653       1.783     428.268
  P     -118.279       5.851     427.705
  C     -117.916       7.961     426.284
  O     -117.942       7.416     427.592
  O     -117.910       5.562     429.240
  O     -119.677       5.436     427.396
  H     -118.615       5.902     429.818
  H     -117.801       9.045     426.360
  H     -118.848       7.740     425.759
  H     -117.065       7.555     425.730
  H     -122.150      -0.729     426.875
  H     -120.929      -1.837     427.452
  H     -121.118      -1.561     425.737

 3  4  5  6  7  8  9  10  11  12  13  21  23  27  28  29  30  32 0
 6-311+G(2d,p)
 ****
 34  35 0
 6-311+G(2d,p)
 ****
 1  2  14  15  16  17  18  19  20  22  24  25  26 0
 3-21G
 ****
 31  33  36  37  38  39  40  41  42  43  44  45  46 0
 3-21G
 ****


