%nproc=1
%NoSave
%Mem=1900MB
#P OB98/GEN NMR

erre ene a

0 1
  C     -641.317     534.547     205.976
  O     -641.452     534.142     204.636
  P     -642.865     533.837     203.951
  C     -643.352     531.347     204.536
  O     -643.623     532.717     204.825
  C     -644.628     530.471     204.548
  O     -645.042     530.262     205.911
  C     -645.775     531.199     203.851
  O     -645.892     531.149     202.442
  C     -647.020     530.783     204.617
  O     -647.744     529.731     203.976
  C     -646.475     530.328     205.970
  N     -650.252     532.833     208.247
  C     -650.326     531.845     207.284
  N     -651.540     531.637     206.741
  N     -649.285     531.143     206.888
  C     -648.127     531.531     207.464
  C     -647.925     532.490     208.431
  C     -649.087     533.229     208.893
  O     -649.053     534.170     209.679
  N     -646.604     532.664     208.720
  C     -645.984     531.845     207.898
  N     -646.859     531.167     207.091
  O     -642.883     533.708     202.455
  O     -643.693     535.174     204.331
  H     -648.352     529.338     204.629
  H     -644.296     535.357     203.585
  H     -651.065     533.406     208.451
  H     -644.900     531.721     207.827
  H     -646.822     529.305     206.195
  H     -647.720     531.627     204.699
  H     -652.316     532.254     206.910
  H     -645.654     532.273     204.067
  H     -651.594     531.043     205.918
  H     -644.417     529.477     204.149
  H     -642.626     530.994     205.269
  H     -642.886     531.274     203.552
  P     -646.585     532.259     201.513
  C     -648.588     530.888     200.683
  O     -648.166     531.975     201.481
  O     -646.128     531.853     200.023
  O     -646.196     533.661     201.819
  H     -646.191     532.642     199.433
  H     -649.653     530.978     200.493
  H     -648.397     529.945     201.224
  H     -648.051     530.869     199.733
  H     -640.281     534.689     206.203
  H     -641.723     533.794     206.619
  H     -641.845     535.466     206.126

 3  4  5  6  7  8  9  10  11  12  23  26  30  31 0
 6-311+G(2d,p)
 ****
 33  35  36  37  38 0
 6-311+G(2d,p)
 ****
 1  2  13  14  15  16  17  18  19  20  21  22  24  25 0
 3-21G
 ****
 27  28  29  32  34  39  40  41  42  43  44  45  46  47  48  49 0
 3-21G
 ****


