%nproc=1
%NoSave
%Mem=1900MB
#P OB98/GEN NMR

erre ene a

0 1
  C     -367.144     170.929     154.574
  O     -366.859     172.100     155.313
  P     -367.946     173.220     155.640
  C     -366.235     174.891     156.664
  O     -367.212     174.653     155.653
  C     -365.141     175.877     156.222
  O     -364.504     175.385     155.021
  C     -365.766     177.232     155.857
  O     -366.049     178.181     156.866
  C     -364.922     177.761     154.702
  O     -363.935     178.699     155.127
  C     -364.248     176.499     154.142
  N     -365.217     178.145     149.443
  C     -364.503     178.764     150.452
  N     -364.176     180.057     150.240
  N     -364.170     178.174     151.571
  C     -364.650     176.905     151.678
  C     -365.357     176.183     150.747
  C     -365.684     176.840     149.496
  O     -366.389     176.352     148.614
  N     -365.740     174.959     151.229
  C     -365.311     174.953     152.478
  N     -364.676     176.131     152.805
  O     -368.923     172.912     156.732
  O     -368.772     173.277     154.256
  H     -363.310     178.234     155.710
  H     -369.708     173.469     154.472
  H     -365.514     178.676     148.634
  H     -365.460     174.148     153.183
  H     -363.163     176.624     154.111
  H     -365.548     178.273     153.966
  H     -364.543     180.588     149.455
  H     -366.747     177.016     155.409
  H     -363.803     180.594     151.024
  H     -364.347     175.947     156.974
  H     -365.798     173.923     156.934
  H     -366.725     175.285     157.561
  P     -367.431     178.951     157.074
  C     -366.057     181.044     157.610
  O     -367.169     180.522     156.898
  O     -367.739     178.816     158.648
  O     -368.588     178.417     156.276
  H     -368.696     178.937     158.811
  H     -366.142     182.130     157.664
  H     -365.133     180.793     157.071
  H     -366.020     180.635     158.621
  H     -366.257     170.337     154.488
  H     -367.489     171.199     153.598
  H     -367.902     170.366     155.077

 3  4  5  6  7  8  9  10  11  12  23  26  30  31 0
 6-311+G(2d,p)
 ****
 33  35  36  37  38 0
 6-311+G(2d,p)
 ****
 1  2  13  14  15  16  17  18  19  20  21  22  24  25 0
 3-21G
 ****
 27  28  29  32  34  39  40  41  42  43  44  45  46  47  48  49 0
 3-21G
 ****


