%nproc=1
%NoSave
%Mem=1900MB
#P OB98/GEN NMR

erre ene a

0 1
  C      295.977    -558.312    -749.589
  O      294.992    -557.395    -750.023
  P      293.455    -557.852    -749.918
  C      292.518    -555.473    -749.404
  O      292.533    -556.585    -750.296
  C      291.994    -554.221    -750.101
  O      292.979    -553.776    -751.100
  C      290.655    -554.429    -750.843
  O      289.894    -553.206    -750.763
  C      291.076    -554.618    -752.279
  O      290.010    -554.293    -753.183
  C      292.286    -553.676    -752.366
  N      294.321    -552.000    -756.670
  C      293.680    -551.293    -755.667
  N      293.497    -549.973    -755.914
  N      293.295    -551.822    -754.557
  C      293.546    -553.155    -754.463
  C      294.196    -553.956    -755.380
  C      294.635    -553.355    -756.617
  O      295.195    -553.935    -757.550
  N      294.310    -555.249    -754.927
  C      293.678    -555.253    -753.768
  N      293.187    -553.998    -753.460
  O      293.221    -558.012    -748.329
  O      293.138    -559.115    -750.652
  H      290.370    -554.381    -754.079
  H      293.199    -558.973    -748.103
  H      294.628    -551.545    -757.512
  H      293.554    -556.106    -753.105
  H      291.970    -552.644    -752.500
  H      291.363    -555.647    -752.439
  H      293.726    -549.518    -756.787
  H      290.057    -555.259    -750.452
  H      292.974    -549.444    -755.215
  H      291.925    -553.422    -749.360
  H      293.517    -555.295    -749.032
  H      291.874    -555.717    -748.540
  P      288.348    -553.368    -750.296
  C      288.425    -551.067    -749.089
  O      287.805    -551.894    -750.062
  O      288.485    -553.979    -748.825
  O      287.540    -554.238    -751.205
  H      287.684    -554.481    -748.599
  H      288.873    -550.202    -749.575
  H      289.183    -551.601    -748.506
  H      287.639    -550.735    -748.379
  H      296.947    -557.879    -749.715
  H      295.909    -559.209    -750.168
  H      295.820    -558.541    -748.556

 3  4  5  6  7  8  9  10  11  12  23  26  30  31 0
 6-311+G(2d,p)
 ****
 33  35  36  37  38 0
 6-311+G(2d,p)
 ****
 1  2  13  14  15  16  17  18  19  20  21  22  24  25 0
 3-21G
 ****
 27  28  29  32  34  39  40  41  42  43  44  45  46  47  48  49 0
 3-21G
 ****


