%nproc=1
%NoSave
%Mem=1900MB
#P OB98/GEN NMR

erre ene a

0 1
  C     -603.613    -283.355     386.735
  O     -603.604    -284.555     385.986
  H     -603.730    -283.582     387.795
  H     -602.662    -282.839     386.585
  H     -604.426    -282.699     386.405
  P     -604.997    -285.329     385.808
  C     -604.858    -285.322     383.217
  O     -605.570    -284.903     384.371
  C     -604.663    -284.151     382.248
  O     -603.811    -283.148     382.892
  C     -604.000    -284.536     380.906
  O     -604.613    -283.783     379.863
  C     -602.562    -284.067     381.075
  O     -601.925    -283.784     379.833
  C     -602.765    -282.825     381.956
  N     -597.812    -281.945     381.260
  C     -598.844    -281.986     380.398
  N     -600.149    -282.188     380.685
  C     -600.354    -282.260     382.006
  C     -599.394    -282.233     383.005
  C     -598.055    -282.074     382.584
  N     -596.975    -282.086     383.460
  N     -599.992    -282.399     384.248
  C     -601.269    -282.557     383.993
  N     -601.539    -282.487     382.652
  O     -605.951    -284.553     386.836
  O     -604.961    -286.796     386.078
  H     -601.018    -283.467     380.016
  H     -605.879    -284.959     387.721
  H     -598.599    -281.877     379.344
  H     -602.035    -282.765     384.727
  H     -603.080    -281.947     381.381
  H     -601.981    -284.835     381.601
  H     -604.056    -285.613     380.674
  H     -605.630    -283.693     382.067
  H     -605.419    -286.116     382.710
  H     -596.055    -282.089     383.046
  H     -597.156    -282.301     384.429
  H     -603.877    -285.729     383.522
  P     -605.489    -284.598     378.789
  C     -607.427    -283.107     377.893
  O     -607.005    -284.059     378.848
  O     -605.601    -286.066     379.437
  O     -604.894    -284.642     377.417
  H     -605.640    -286.745     378.735
  H     -608.452    -282.855     378.069
  H     -607.325    -283.518     376.910
  H     -606.824    -282.227     377.976

 6  7  8  9  10  11  12  13  14  15  25  28  32  33  34  35 0
 6-311+G(2d,p)
 ****
 36  39  40 0
 6-311+G(2d,p)
 ****
 1  2  3  4  5  16  17  18  19  20  21  22  23  24 0
 3-21G
 ****
 26  27  29  30  31  37  38  41  42  43  44  45  46  47 0
 3-21G
 ****
 48 0
 3-21G
 ****


