%nproc=1
%NoSave
%Mem=1900MB
#P OB98/GEN NMR

erre ene a

0 1
  C     1963.069    -186.514     346.957
  O     1964.121    -186.382     347.884
  H     1963.019    -187.551     346.628
  H     1963.257    -185.876     346.086
  H     1962.116    -186.243     347.413
  P     1964.237    -184.991     348.677
  C     1963.853    -185.839     351.112
  O     1963.322    -185.137     349.992
  C     1962.886    -186.953     351.531
  O     1962.775    -187.912     350.440
  C     1963.338    -187.728     352.780
  O     1962.186    -188.079     353.539
  C     1963.945    -188.982     352.186
  O     1963.970    -190.089     353.089
  C     1963.025    -189.218     350.981
  N     1963.636    -190.093     349.974
  C     1963.106    -191.388     349.854
  O     1962.140    -191.799     350.465
  N     1963.769    -192.199     348.973
  C     1964.878    -191.872     348.250
  O     1965.433    -192.667     347.496
  C     1965.376    -190.511     348.416
  C     1964.747    -189.698     349.260
  O     1963.399    -183.984     347.755
  O     1965.626    -184.510     348.942
  H     1963.980    -183.572     347.097
  H     1964.154    -190.900     352.563
  H     1963.400    -193.137     348.885
  H     1966.266    -190.225     347.862
  H     1965.115    -188.687     349.435
  H     1962.067    -189.630     351.308
  H     1964.982    -188.798     351.857
  H     1964.057    -187.187     353.415
  H     1961.895    -186.530     351.688
  H     1963.983    -185.147     351.953
  H     1964.828    -186.260     350.845
  P     1961.592    -186.963     354.532
  C     1959.151    -186.717     353.612
  O     1960.467    -186.188     353.681
  O     1962.818    -185.928     354.604
  O     1961.150    -187.527     355.838
  H     1963.308    -185.859     353.763
  H     1958.541    -186.078     353.009
  H     1958.739    -186.778     354.598
  H     1959.182    -187.694     353.177

 6  7  8  9  10  11  12  13  14  15  16  27  31  32  33  34  35 0
 6-311+G(2d,p)
 ****
 36  37 0
 6-311+G(2d,p)
 ****
 1  2  3  4  5  17  18  19  20  21  22  23  24  25 0
 3-21G
 ****
 26  28  29  30  38  39  40  41  42  43  44  45 0
 3-21G
 ****


