%nproc=1
%NoSave
%Mem=1900MB
#P OB98/GEN NMR

erre ene a

0 1
  C      -63.189     104.126     252.096
  O      -64.094     104.868     252.893
  H      -62.422     104.801     251.710
  H      -63.719     103.665     251.258
  H      -62.704     103.350     252.703
  P      -65.279     104.038     253.591
  C      -67.185     104.783     251.970
  O      -66.346     103.731     252.429
  C      -68.104     104.276     250.855
  O      -69.035     105.345     250.499
  C      -67.359     103.881     249.566
  O      -68.101     102.836     248.907
  C      -67.464     105.157     248.743
  O      -67.176     104.903     247.392
  C      -68.896     105.562     249.071
  N      -71.783     108.597     246.162
  C      -71.780     107.257     246.346
  N      -70.981     106.529     247.147
  C      -70.133     107.320     247.831
  C      -70.023     108.701     247.751
  C      -70.899     109.352     246.861
  N      -70.889     110.709     246.659
  N      -69.016     109.151     248.589
  C      -68.533     108.066     249.163
  N      -69.185     106.939     248.736
  O      -66.010     105.139     254.498
  O      -64.854     102.852     254.386
  H      -67.327     105.700     246.841
  H      -65.639     105.131     255.401
  H      -72.513     106.703     245.764
  H      -67.725     108.037     249.884
  H      -69.635     104.930     248.562
  H      -66.745     105.910     249.096
  H      -66.332     103.550     249.743
  H      -68.714     103.444     251.232
  H      -66.549     105.595     251.590
  H      -67.791     105.156     252.803
  H      -71.529     111.097     245.979
  H      -70.211     111.278     247.144
  P      -67.337     101.476     248.501
  C      -67.555     101.531     245.899
  O      -66.705     101.610     247.033
  O      -68.566     100.474     248.255
  O      -66.419     100.925     249.541
  H      -68.381      99.617     248.692
  H      -66.972     101.639     245.008
  H      -68.285     102.312     245.945
  H      -68.049     100.582     245.889

 6  7  8  9  10  11  12  13  14  15  25  28  32  33  34  35 0
 6-311+G(2d,p)
 ****
 36  37  40 0
 6-311+G(2d,p)
 ****
 1  2  3  4  5  16  17  18  19  20  21  22  23  24 0
 3-21G
 ****
 26  27  29  30  31  38  39 41  42  43  44  45  46  47  48 0
 3-21G
 ****


