%nproc=1
%NoSave
%Mem=1900MB
#P OB98/GEN NMR

erre ene a

0 1
  C      122.849     285.747     221.967
  O      123.771     284.901     221.302
  P      125.117     284.429     222.022
  C      126.614     284.843     219.905
  O      126.355     285.097     221.268
  C      127.091     286.145     219.241
  O      126.144     287.205     219.488
  C      128.445     286.586     219.784
  O      129.496     286.115     218.956
  C      128.321     288.097     219.800
  O      128.573     288.641     218.491
  C      126.831     288.282     220.179
  N      126.462     288.213     221.609
  C      126.877     289.219     222.475
  O      127.522     290.206     222.118
  N      126.544     289.045     223.796
  C      125.812     288.007     224.301
  O      125.731     287.738     225.495
  C      125.180     287.136     223.306
  C      125.543     287.263     222.030
  O      125.225     282.885     221.612
  O      125.153     284.619     223.504
  H      129.457     288.326     218.215
  H      124.898     282.315     222.331
  H      126.959     289.701     224.449
  H      124.483     286.389     223.651
  H      125.120     286.597     221.281
  H      126.438     289.229     219.791
  H      129.057     288.550     220.463
  H      128.576     286.236     220.817
  H      127.149     285.987     218.154
  H      125.706     284.475     219.412
  H      127.376     284.067     219.805
  P      130.463     284.954     219.484
  C      132.479     286.475     219.034
  O      131.783     285.709     219.999
  O      130.698     283.831     218.534
  O      129.741     284.461     220.828
  H      129.212     283.657     220.643
  H      133.243     287.071     219.543
  H      131.796     287.149     218.509
  H      132.972     285.811     218.317
  H      122.019     285.947     221.322
  H      123.331     286.667     222.224
  H      122.501     285.266     222.857

 3  4  5  6  7  8  9  10  11  12  13  23  28  29  30  31  32 0
 6-311+G(2d,p)
 ****
 33  34 0
 6-311+G(2d,p)
 ****
 1  2  14  15  16  17  18  19  20  21  22  24  25  26  27 0
 3-21G
 ****
 35  36  37  38  39  40  41  42  43  44  45 0
 3-21G
 ****


