%nproc=1
%NoSave
%Mem=1900MB
#P OB98/GEN NMR

erre ene a

0 1
  C     -177.388     -23.578     115.623
  O     -178.186     -23.728     116.785
  P     -178.050     -22.617     117.935
  C     -176.206     -23.842     119.364
  O     -176.559     -22.763     118.507
  C     -174.688     -23.900     119.536
  O     -174.052     -24.010     118.245
  C     -174.074     -22.669     120.189
  O     -174.279     -22.657     121.592
  C     -172.617     -22.801     119.756
  O     -171.933     -23.743     120.602
  C     -172.759     -23.367     118.331
  N     -172.603     -22.355     117.291
  C     -171.370     -22.324     116.643
  O     -170.448     -23.094     116.911
  N     -171.225     -21.359     115.683
  C     -172.143     -20.401     115.358
  O     -171.942     -19.532     114.520
  C     -173.413     -20.465     116.097
  C     -173.582     -21.421     117.014
  O     -178.987     -23.250     119.068
  O     -178.440     -21.250     117.482
  H     -179.033     -24.221     118.998
  H     -170.996     -23.731     120.324
  H     -170.348     -21.330     115.184
  H     -174.164     -19.716     115.875
  H     -174.506     -21.477     117.574
  H     -172.015     -24.157     118.161
  H     -172.073     -21.852     119.815
  H     -174.507     -21.760     119.747
  H     -174.443     -24.803     120.114
  H     -176.563     -24.774     118.925
  H     -176.700     -23.700     120.333
  P     -174.537     -21.218     122.268
  C     -171.949     -21.028     122.571
  O     -173.155     -20.418     122.165
  O     -174.651     -21.621     123.815
  O     -175.735     -20.508     121.724
  H     -173.982     -22.278     124.085
  H     -171.113     -20.497     122.104
  H     -171.912     -22.078     122.266
  H     -171.848     -20.959     123.657
  H     -177.583     -24.386     114.949
  H     -176.354     -23.584     115.897
  H     -177.625     -22.650     115.145

 3  4  5  6  7  8  9  10  11  12  13  24  28  29  30  31  32 0
 6-311+G(2d,p)
 ****
 33  34 0
 6-311+G(2d,p)
 ****
 1  2  14  15  16  17  18  19  20  21  22  23  25  26  27 0
 3-21G
 ****
 35  36  37  38  39  40  41  42  43  44  45 0
 3-21G
 ****


