%nproc=1
%NoSave
%Mem=1900MB
#P OB98/GEN NMR

erre ene a

0 1
  C      116.763     -10.834      65.270
  O      117.175     -10.234      66.504
  P      117.540     -11.248      67.699
  C      119.206      -9.674      68.921
  O      117.970     -10.375      68.978
  C      119.068      -8.332      68.196
  O      117.932      -7.614      68.735
  C      120.284      -7.407      68.321
  O      120.458      -6.707      67.080
  C      119.846      -6.390      69.358
  O      120.577      -5.171      69.261
  C      118.362      -6.273      69.019
  N      116.917      -1.998      71.302
  C      117.637      -2.175      70.137
  N      118.048      -1.056      69.505
  N      117.926      -3.348      69.636
  C      117.423      -4.379      70.357
  C      116.687      -4.330      71.520
  C      116.410      -3.027      72.085
  O      115.823      -2.804      73.141
  N      116.356      -5.590      71.958
  C      116.897      -6.396      71.067
  N      117.561      -5.709      70.082
  O      118.907     -11.915      67.204
  O      116.491     -12.279      67.954
  H      120.585      -4.915      68.319
  H      118.814     -12.886      67.179
  H      116.739      -1.073      71.653
  H      116.862      -7.477      71.098
  H      118.205      -5.669      68.118
  H      120.001      -6.804      70.362
  H      117.803      -0.124      69.800
  H      121.215      -7.915      68.596
  H      118.537      -1.167      68.625
  H      118.852      -8.535      67.141
  H      119.946     -10.287      68.400
  H      119.564      -9.515      69.944
  P      121.512      -7.336      66.047
  C      120.581      -6.477      63.775
  O      121.548      -6.335      64.798
  O      120.748      -8.624      65.480
  O      122.832      -7.677      66.652
  H      121.393      -9.298      65.192
  H      119.774      -7.157      64.061
  H      121.067      -6.864      62.876
  H      120.152      -5.496      63.554
  H      116.548     -10.068      64.555
  H      115.886     -11.424      65.436
  H      117.548     -11.459      64.898

 3  4  5  6  7  8  9  10  11  12  23  26  30  31  33  0
 6-311+G(2d,p)
 ****
 35  36  37  38 0
 6-311+G(2d,p)
 ****
 1  2  13  14  15  16  17  18  19  20  21  22  24  25  27  28  29 0
 3-21G
 ****
 32  34  39  40  41  42  43  44  45  46  47  48  49 0
 3-21G
 ****


