%nproc=1
%NoSave
%Mem=1900MB
#P OB98/GEN NMR

erre ene a

0 1
  C       26.356      93.845    -259.992
  O       25.411      93.126    -260.802
  P       24.546      91.950    -260.134
  C       22.324      91.912    -261.502
  O       23.567      91.288    -261.219
  C       22.508      93.127    -262.423
  O       23.250      92.743    -263.617
  C       21.197      93.769    -262.898
  O       21.443      95.175    -263.038
  C       20.997      93.134    -264.263
  O       20.113      93.868    -265.098
  C       22.446      93.100    -264.760
  N       22.678      92.175    -265.870
  C       22.954      92.714    -267.121
  O       22.955      93.917    -267.375
  N       23.206      91.807    -268.119
  C       23.170      90.448    -268.001
  O       23.375      89.690    -268.941
  C       22.846      89.936    -266.663
  C       22.619      90.806    -265.678
  O       23.524      92.771    -259.211
  O       25.319      90.977    -259.302
  H       20.566      94.695    -265.343
  H       23.472      92.361    -258.329
  H       23.421      92.181    -269.030
  H       22.812      88.863    -266.526
  H       22.390      90.450    -264.679
  H       22.754      94.108    -265.059
  H       20.581      92.129    -264.138
  H       20.362      93.595    -262.213
  H       23.125      93.864    -261.894
  H       21.866      92.243    -260.565
  H       21.656      91.181    -261.971
  P       20.542      96.197    -262.183
  C       21.886      98.379    -261.657
  O       21.041      97.677    -262.539
  O       21.143      95.950    -260.716
  O       19.073      95.947    -262.268
  H       22.114      95.925    -260.709
  H       22.653      97.726    -261.231
  H       21.292      98.815    -260.849
  H       22.379      99.183    -262.207
  H       26.843      94.588    -260.588
  H       27.085      93.164    -259.605
  H       25.843      94.318    -259.181

 3  4  5  6  7  8  9  10  11  12  13  23  28  29  30  31  32 0
 6-311+G(2d,p)
 ****
 33  34 0
 6-311+G(2d,p)
 ****
 1  2  14  15  16  17  18  19  20  21  22  24  25  26 0
 3-21G
 ****
 27  35  36  37  38  39  40  41  42  43  44  45 0
 3-21G
 ****


