%nproc=1
%NoSave
%Mem=1900MB
#P OB98/GEN NMR

erre ene a

0 1
  C       44.782      -5.409      19.018
  O       43.712      -6.270      19.427
  P       42.840      -7.143      18.399
  C       44.475      -9.124      18.621
  O       43.119      -8.703      18.656
  C       44.735     -10.291      19.581
  O       44.594      -9.843      20.964
  C       43.793     -11.492      19.391
  O       44.584     -12.668      19.587
  C       42.797     -11.294      20.524
  O       42.064     -12.460      20.849
  C       43.748     -10.808      21.622
  N       43.105     -10.218      22.792
  C       43.143     -10.941      23.990
  O       43.647     -12.061      24.048
  N       42.581     -10.380      25.112
  C       42.025      -9.211      25.048
  N       41.498      -8.712      26.198
  C       41.946      -8.425      23.806
  C       42.501      -8.981      22.731
  O       43.016      -6.738      16.972
  O       41.318      -6.945      18.855
  H       40.746      -6.932      18.065
  H       42.640     -13.038      21.382
  H       41.480      -7.451      23.797
  H       42.510      -8.452      21.783
  H       44.392     -11.636      21.938
  H       42.081     -10.521      20.230
  H       43.334     -11.537      18.398
  H       45.779     -10.603      19.458
  H       41.580      -9.277      27.035
  H       45.108      -8.281      18.912
  H       41.050      -7.810      26.264
  H       44.734      -9.409      17.595
  P       45.055     -13.528      18.318
  C       46.457     -12.147      16.611
  O       46.440     -12.910      17.800
  O       44.031     -13.031      17.185
  O       44.982     -15.014      18.461
  H       43.937     -13.728      16.512
  H       47.066     -11.255      16.776
  H       45.456     -11.834      16.304
  H       46.907     -12.741      15.812
  H       45.209      -4.937      19.878
  H       44.404      -4.662      18.352
  H       45.532      -5.985      18.518

 3  4  5  6  7  8  9  10  11  12  13  24  27  28  29  30  32 0
 6-311+G(2d,p)
 ****
 34  35 0
 6-311+G(2d,p)
 ****
 1  2  14  15  16  17  18  19  20  21  22  23  25  26 0
 3-21G
 ****
 31  33  36  37  38  39  40  41  42  43  44  45  46 0
 3-21G
 ****


