%nproc=1
%NoSave
%Mem=1900MB
#P OB98/GEN NMR

erre ene a

0 1
  C      106.696     147.533    -199.225
  O      105.464     148.208    -199.045
  P      104.850     148.976    -200.314
  C      103.119     149.989    -198.658
  O      104.039     150.224    -199.719
  C      103.173     151.130    -197.647
  O      104.376     151.034    -196.861
  C      103.201     152.512    -198.273
  O      101.910     152.887    -198.709
  C      103.734     153.354    -197.121
  O      102.669     153.783    -196.256
  C      104.675     152.367    -196.389
  N      106.079     152.693    -196.572
  C      106.752     153.144    -195.430
  O      106.148     153.262    -194.361
  N      108.077     153.487    -195.538
  C      108.673     153.392    -196.687
  N      109.989     153.738    -196.735
  C      107.995     152.940    -197.917
  C      106.708     152.616    -197.791
  O      103.700     147.985    -200.818
  O      105.839     149.293    -201.388
  H      103.098     154.299    -195.544
  H      103.533     148.106    -201.771
  H      108.537     152.880    -198.850
  H      106.133     152.277    -198.644
  H      104.463     152.366    -195.312
  H      104.238     154.258    -197.474
  H      103.910     152.542    -199.109
  H      102.314     151.029    -196.969
  H      110.424     154.051    -195.876
  H      103.380     149.055    -198.155
  H      110.546     153.680    -197.573
  H      102.112     149.890    -199.079
  P      101.787     154.179    -199.646
  C       99.302     154.029    -199.025
  O      100.416     154.883    -199.198
  O      101.388     153.539    -201.058
  O      102.983     155.067    -199.747
  H      101.379     154.229    -201.747
  H       98.488     154.600    -198.574
  H       99.556     153.196    -198.364
  H       98.969     153.647    -199.995
  H      106.986     147.069    -198.306
  H      107.447     148.235    -199.523
  H      106.586     146.786    -199.983

 3  4  5  6  7  8  9  10  11  12  13  21  23  27  28  29  30  32 0
 6-311+G(2d,p)
 ****
 34  35 0
 6-311+G(2d,p)
 ****
 1  2  14  15  16  17  18  19  20  22  24  25  26 0
 3-21G
 ****
 31  33  36  37  38  39  40  41  42  43  44  45  46 0
 3-21G
 ****


