%nproc=1
%NoSave
%Mem=1900MB
#P OB98/GEN NMR

erre ene a

0 1
  C      -43.574    -824.763    -183.340
  O      -44.097    -825.877    -182.650
  H      -42.962    -825.124    -184.168
  H      -42.945    -824.167    -182.677
  H      -44.380    -824.146    -183.744
  P      -45.039    -825.616    -181.380
  C      -47.220    -826.112    -182.687
  O      -46.437    -825.138    -182.015
  C      -48.455    -825.463    -183.302
  O      -48.094    -824.508    -184.324
  C      -49.409    -826.427    -184.004
  O      -50.165    -827.231    -183.114
  C      -50.269    -825.436    -184.766
  O      -51.195    -824.805    -183.862
  C      -49.201    -824.439    -185.267
  N      -48.737    -824.744    -186.623
  C      -49.488    -824.206    -187.677
  O      -50.492    -823.527    -187.452
  N      -49.108    -824.483    -188.964
  C      -48.082    -825.244    -189.190
  N      -47.753    -825.493    -190.485
  C      -47.274    -825.846    -188.108
  C      -47.656    -825.555    -186.865
  O      -44.481    -824.727    -180.317
  O      -45.414    -827.084    -180.850
  H      -51.742    -825.511    -183.476
  H      -45.989    -826.978    -180.052
  H      -46.450    -826.500    -188.344
  H      -47.113    -825.968    -186.021
  H      -49.584    -823.412    -185.248
  H      -50.861    -825.901    -185.559
  H      -48.868    -827.051    -184.729
  H      -48.965    -824.903    -182.507
  H      -48.328    -825.068    -191.205
  H      -47.504    -826.882    -181.961
  H      -47.021    -826.136    -190.751
  H      -46.637    -826.576    -183.488
  P      -49.973    -828.826    -183.227
  C      -49.283    -829.873    -180.943
  O      -48.874    -829.221    -182.131
  O      -49.209    -828.999    -184.622
  O      -51.230    -829.626    -183.154
  H      -49.841    -829.242    -185.331
  H      -48.428    -830.062    -180.327
  H      -49.756    -830.800    -181.190
  H      -49.973    -829.250    -180.414

 6  7  8  9  10  11  12  13  14  15  16  26  30  31  32  33  35 0
 6-311+G(2d,p)
 ****
 37  38 0
 6-311+G(2d,p)
 ****
 1  2  3  4  5  17  18  19  20  21  22  23  24  25 0
 3-21G
 ****
 27  28  29  34  36  39  40  41  42  43  44  45  46 0
 3-21G
 ****


