%nproc=1
%NoSave
%Mem=1900MB
#P OB98/GEN NMR

erre ene a

0 1
  C      275.616    -139.085      24.445
  O      276.573    -140.102      24.756
  P      278.073    -139.891      24.229
  C      280.332    -139.691      25.509
  O      279.088    -140.368      25.374
  C      281.071    -140.190      26.753
  O      280.365    -139.837      27.956
  C      281.208    -141.703      26.800
  O      282.243    -142.138      25.942
  C      281.487    -141.948      28.280
  O      282.897    -141.922      28.565
  C      280.763    -140.774      28.975
  N      279.626    -141.206      29.771
  C      279.882    -142.214      30.705
  O      281.012    -142.699      30.802
  N      278.844    -142.664      31.485
  C      277.657    -142.168      31.325
  N      276.671    -142.658      32.124
  C      277.340    -141.120      30.334
  C      278.363    -140.692      29.595
  O      278.240    -138.297      24.227
  O      278.326    -140.474      22.875
  H      283.282    -142.662      28.058
  H      278.829    -138.022      23.502
  H      276.332    -140.747      30.231
  H      278.222    -139.925      28.839
  H      281.453    -140.239      29.635
  H      281.121    -142.933      28.596
  H      280.256    -142.174      26.523
  H      282.067    -139.722      26.781
  H      276.921    -143.373      32.793
  H      280.168    -138.610      25.580
  H      275.708    -142.347      32.081
  H      280.927    -139.862      24.604
  P      281.888    -142.366      24.399
  C      283.330    -142.976      22.363
  O      283.190    -143.065      23.767
  O      281.990    -140.877      23.806
  O      280.575    -143.003      24.084
  H      281.700    -140.869      22.876
  H      284.342    -143.297      22.092
  H      283.185    -141.947      22.028
  H      282.609    -143.637      21.873
  H      274.665    -139.353      24.855
  H      275.532    -138.987      23.383
  H      275.936    -138.154      24.865

 3  4  5  6  7  8  9  10  11  12  13  21  23  27  28  29  30  32 0
 6-311+G(2d,p)
 ****
 34  35 0
 6-311+G(2d,p)
 ****
 1  2  14  15  16  17  18  19  20  22  24  25  26 0
 3-21G
 ****
 31  33  36  37  38  39  40  41  42  43  44  45  46 0
 3-21G
 ****


