%nproc=1
%NoSave
%Mem=1900MB
#P OB98/GEN NMR

erre ene a

0 1
  C     -128.701    -221.074     380.428
  O     -127.744    -220.128     380.874
  P     -126.319    -220.680     381.368
  C     -124.275    -219.370     382.386
  O     -125.367    -219.396     381.480
  C     -123.184    -218.423     381.876
  O     -122.875    -218.725     380.500
  C     -123.574    -216.950     381.888
  O     -123.507    -216.395     383.192
  C     -122.563    -216.370     380.900
  O     -121.293    -216.170     381.540
  C     -122.464    -217.499     379.856
  N     -123.252    -217.248     378.651
  C     -122.590    -216.613     377.603
  O     -121.404    -216.275     377.663
  N     -123.342    -216.361     376.487
  C     -124.675    -216.614     376.339
  O     -125.308    -216.328     375.333
  C     -125.328    -217.255     377.490
  C     -124.601    -217.537     378.575
  O     -125.825    -221.438     380.047
  O     -126.409    -221.529     382.590
  H     -126.214    -221.053     379.241
  H     -120.638    -216.057     380.824
  H     -122.875    -215.920     375.706
  H     -126.388    -217.463     377.417
  H     -125.068    -218.000     379.437
  H     -121.414    -217.650     379.556
  H     -122.879    -215.405     380.490
  H     -124.588    -216.827     381.489
  H     -122.279    -218.589     382.472
  H     -123.867    -220.382     382.480
  H     -124.632    -219.044     383.367
  P     -123.486    -214.790     383.293
  C     -124.431    -213.094     385.044
  O     -124.436    -214.403     384.526
  O     -124.333    -214.386     381.995
  O     -122.110    -214.209     383.336
  H     -125.115    -214.951     381.869
  H     -125.358    -212.934     385.604
  H     -124.366    -212.347     384.246
  H     -123.583    -212.972     385.724
  H     -129.595    -220.565     380.132
  H     -128.925    -221.756     381.221
  H     -128.306    -221.615     379.594

 3  4  5  6  7  8  9  10  11  12  13  24  28  29  30  31  32 0
 6-311+G(2d,p)
 ****
 33  34 0
 6-311+G(2d,p)
 ****
 1  2  14  15  16  17  18  19  20  21  22  23  25  26  27 0
 3-21G
 ****
 35  36  37  38  39  40  41  42  43  44  45 0
 3-21G
 ****


