%nproc=1
%NoSave
%Mem=1900MB
#P OB98/GEN NMR

erre ene a

0 1
  C       59.797     164.661     165.293
  O       58.987     164.734     166.453
  P       59.509     164.137     167.848
  C       59.746     161.752     168.801
  O       59.126     162.577     167.817
  C       59.007     160.418     168.936
  O       57.712     160.616     169.543
  C       58.736     159.719     167.608
  O       59.914     159.092     167.126
  C       57.620     158.762     168.002
  O       58.148     157.571     168.607
  C       56.825     159.592     169.032
  N       55.610     160.165     168.470
  C       54.406     159.602     168.916
  O       54.419     158.661     169.710
  N       53.223     160.089     168.411
  C       53.245     161.041     167.525
  N       52.042     161.473     167.056
  C       54.492     161.635     167.008
  C       55.626     161.157     167.515
  O       59.066     164.883     169.064
  O       61.101     164.116     167.662
  H       57.411     157.164     169.102
  H       61.485     165.028     167.721
  H       54.459     162.416     166.262
  H       56.587     161.535     167.190
  H       56.546     158.971     169.894
  H       57.025     158.447     167.136
  H       58.356     160.446     166.876
  H       59.597     159.766     169.590
  H       51.212     161.016     167.416
  H       59.715     162.278     169.758
  H       51.946     162.177     166.341
  H       60.794     161.585     168.531
  P       60.181     158.997     165.551
  C       59.254     157.669     163.559
  O       59.216     157.861     164.958
  O       61.612     158.893     165.149
  O       59.527     160.349     164.980
  H       60.138     160.746     164.329
  H       58.839     156.683     163.327
  H       60.282     157.716     163.184
  H       58.654     158.436     163.070
  H       59.281     165.109     164.469
  H       60.007     163.636     165.068
  H       60.715     165.183     165.465

 3  4  5  6  7  8  9  10  11  12  13  23  27  28  29  30  32 0
 6-311+G(2d,p)
 ****
 34  35 0
 6-311+G(2d,p)
 ****
 1  2  14  15  16  17  18  19  20  21  22  24  25  26 0
 3-21G
 ****
 31  33  36  37  38  39  40  41  42  43  44  45  46 0
 3-21G
 ****


