%nproc=1
%NoSave
%Mem=1900MB
#P OB98/GEN NMR

erre ene a

0 1
  C      187.476     786.446     460.177
  O      188.858     786.446     459.842
  H      187.304     785.693     460.943
  H      186.875     786.192     459.295
  H      187.179     787.427     460.563
  P      189.367     787.425     458.676
  C      188.563     789.870     458.509
  O      189.296     788.915     459.263
  C      188.290     791.120     459.340
  O      187.458     790.733     460.466
  C      189.584     791.752     459.897
  O      189.704     793.140     459.599
  C      189.567     791.347     461.374
  O      190.275     792.207     462.233
  C      188.070     791.225     461.682
  N      187.757     790.331     462.801
  C      187.950     790.833     464.090
  O      188.320     791.986     464.350
  N      187.663     789.965     465.105
  C      187.255     788.676     464.976
  O      187.025     787.942     465.933
  C      187.105     788.189     463.603
  C      187.364     789.026     462.584
  O      188.711     787.242     457.340
  O      190.936     787.137     458.595
  H      191.160     792.368     461.835
  H      191.133     786.568     457.828
  H      187.783     790.326     466.040
  H      186.786     787.165     463.460
  H      187.263     788.699     461.547
  H      187.637     792.192     461.904
  H      190.031     790.358     461.459
  H      190.467     791.309     459.416
  H      187.720     791.836     458.739
  H      187.613     789.397     458.209
  H      189.125     790.140     457.599
  P      190.489     793.732     458.341
  C      190.276     792.797     455.903
  O      189.649     793.398     457.023
  O      191.948     793.433     458.299
  O      190.323     795.328     458.507
  H      191.140     795.736     458.141
  H      189.555     792.653     455.125
  H      190.686     791.851     456.189
  H      191.060     793.433     455.549

 6  7  8  9  10  11  12  13  14  15  16  26  31  32  33  34  35 0
 6-311+G(2d,p)
 ****
 36  37 0
 6-311+G(2d,p)
 ****
 1  2  3  4  5  17  18  19  20  21  22  23  24  25 0
 3-21G
 ****
 27  28  29  30  38  39  40  41  42  43  44  45 0
 3-21G
 ****


