%nproc=1
%NoSave
%Mem=1900MB
#P OB98/GEN NMR

erre ene a

0 1
  C     -195.556     885.599    -158.199
  O     -194.163     885.898    -158.358
  P     -193.751     886.933    -159.508
  C     -192.188     888.828    -158.671
  O     -192.286     887.505    -159.191
  C     -192.099     888.826    -157.140
  O     -190.998     887.980    -156.686
  C     -191.875     890.209    -156.535
  O     -192.482     890.243    -155.242
  C     -190.365     890.253    -156.356
  O     -189.971     891.261    -155.434
  C     -190.105     888.809    -155.921
  N     -185.689     887.897    -153.651
  C     -186.891     888.335    -153.123
  N     -186.932     888.516    -151.790
  N     -187.957     888.563    -153.845
  C     -187.782     888.301    -155.166
  C     -186.637     887.879    -155.806
  C     -185.456     887.656    -154.999
  O     -184.363     887.290    -155.416
  N     -186.843     887.756    -157.159
  C     -188.110     888.108    -157.327
  N     -188.723     888.413    -156.147
  O     -194.714     888.183    -159.223
  O     -193.945     886.407    -160.896
  H     -190.220     892.126    -155.823
  H     -195.399     888.231    -159.908
  H     -184.897     887.747    -153.054
  H     -188.620     888.155    -158.277
  H     -190.311     888.656    -154.857
  H     -189.886     890.467    -157.318
  H     -186.164     888.309    -151.171
  H     -192.254     891.043    -157.131
  H     -187.814     888.792    -151.370
  H     -193.022     888.392    -156.732
  H     -193.056     889.420    -158.978
  H     -191.313     889.315    -159.120
  P     -193.828     891.094    -155.094
  C     -194.452     889.760    -152.960
  O     -194.248     891.019    -153.546
  O     -194.933     890.195    -155.826
  O     -193.769     892.475    -155.676
  H     -195.667     890.752    -156.146
  H     -193.584     889.505    -152.339
  H     -194.590     888.970    -153.709
  H     -195.334     889.798    -152.327
  H     -195.681     884.899    -157.400
  H     -195.936     885.177    -159.106
  H     -196.090     886.498    -157.972

 3  4  5  6  7  8  9  10  11  12  23  26  30  31 0
 6-311+G(2d,p)
 ****
 33  35  36  37  38 0
 6-311+G(2d,p)
 ****
 1  2  13  14  15  16  17  18  19  20  21  22  24  25 0
 3-21G
 ****
 27  28  29  32  34  39  40  41  42  43  44  45  46  47  48  49 0
 3-21G
 ****


