%nproc=1
%NoSave
%Mem=1900MB
#P OB98/GEN NMR

erre ene a

0 1
  C     1086.087    -244.748    -771.459
  O     1087.452    -245.102    -771.561
  H     1086.013    -243.711    -771.122
  H     1085.598    -245.392    -770.723
  H     1085.589    -244.844    -772.428
  P     1087.794    -246.461    -772.344
  C     1088.025    -245.849    -774.854
  O     1087.172    -246.301    -773.818
  C     1087.418    -246.166    -776.223
  O     1087.428    -247.598    -776.451
  C     1085.973    -245.713    -776.393
  O     1085.899    -244.345    -776.762
  C     1085.526    -246.618    -777.530
  O     1086.044    -246.114    -778.786
  C     1086.207    -247.945    -777.175
  N     1081.833    -250.490    -776.832
  C     1082.276    -249.615    -777.802
  N     1081.425    -249.380    -778.832
  N     1083.445    -249.024    -777.775
  C     1084.170    -249.335    -776.680
  C     1083.849    -250.175    -775.643
  C     1082.561    -250.838    -775.694
  O     1082.126    -251.631    -774.857
  N     1084.841    -250.238    -774.709
  C     1085.767    -249.423    -775.169
  N     1085.413    -248.839    -776.356
  O     1086.831    -247.527    -771.635
  O     1089.221    -246.889    -772.281
  H     1085.855    -245.157    -778.801
  H     1087.358    -248.061    -771.016
  H     1080.920    -250.911    -776.892
  H     1086.709    -249.216    -774.679
  H     1086.509    -248.507    -778.069
  H     1084.437    -246.657    -777.631
  H     1080.509    -249.780    -778.896
  H     1085.376    -245.926    -775.496
  H     1081.737    -248.743    -779.554
  H     1088.062    -245.714    -776.986
  H     1089.001    -246.343    -774.766
  H     1088.163    -244.766    -774.758
  P     1084.445    -243.663    -776.870
  C     1084.554    -243.146    -774.331
  O     1083.799    -243.709    -775.397
  O     1083.604    -244.758    -777.678
  O     1084.415    -242.339    -777.556
  H     1083.388    -244.410    -778.573
  H     1084.008    -243.245    -773.416
  H     1084.733    -242.110    -774.529
  H     1085.489    -243.660    -774.246

 6  7  8  9  10  11  12  13  14  15  26  29  33  34 0
 6-311+G(2d,p)
 ****
 36  38  39  40  41 0
 6-311+G(2d,p)
 ****
 1  2  3  4  5  16  17  18  19  20  21  22  23  24  25 0
 3-21G
 ****
 27  28  30  31  32  35  37  42  43  44  45  46  47 0
 3-21G
 ****
 48  49 0
 3-21G
 ****


