%nproc=1
%NoSave
%Mem=1900MB
#P OB98/GEN NMR

erre ene a

0 1
  C      -44.536     916.519    -100.492
  O      -43.822     916.091    -101.637
  H      -43.822     916.788     -99.712
  H      -45.174     915.710    -100.121
  H      -45.149     917.396    -100.733
  P      -44.699     915.629    -102.896
  C      -43.901     913.202    -103.348
  O      -43.800     914.570    -103.705
  C      -42.617     912.464    -103.705
  O      -42.420     912.440    -105.138
  C      -41.348     913.060    -103.105
  O      -41.158     912.617    -101.773
  C      -40.289     912.524    -104.055
  O      -39.924     911.166    -103.737
  C      -41.002     912.593    -105.409
  N      -38.969     914.569    -109.592
  C      -39.087     913.258    -109.195
  N      -38.516     912.330    -110.009
  N      -39.682     912.881    -108.091
  C      -40.163     913.915    -107.364
  C      -40.129     915.255    -107.661
  C      -39.491     915.657    -108.896
  O      -39.420     916.802    -109.337
  N      -40.741     915.997    -106.682
  C      -41.114     915.108    -105.782
  N      -40.766     913.824    -106.140
  O      -44.700     916.915    -103.849
  O      -46.088     915.176    -102.580
  H      -39.279     910.839    -104.390
  H      -45.537     916.939    -104.350
  H      -38.512     914.797    -110.455
  H      -41.628     915.335    -104.857
  H      -40.710     911.768    -106.077
  H      -39.368     913.105    -104.002
  H      -37.786     912.577    -110.657
  H      -41.367     914.152    -103.165
  H      -38.584     911.361    -109.716
  H      -42.733     911.416    -103.386
  H      -44.738     912.753    -103.883
  H      -44.085     913.127    -102.267
  P      -41.268     913.719    -100.600
  C      -39.314     912.289     -99.648
  O      -40.404     913.158     -99.368
  O      -42.777     913.563    -100.088
  O      -40.962     915.121    -101.027
  H      -43.040     914.349     -99.574
  H      -38.841     912.003     -98.732
  H      -38.607     912.794    -100.272
  H      -39.674     911.416    -100.151

 6  7  8  9  10  11  12  13  14  15  26  29  33  34 0
 6-311+G(2d,p)
 ****
 36  38  39  40  41 0
 6-311+G(2d,p)
 ****
 1  2  3  4  5  16  17  18  19  20  21  22  23  24  25 0
 3-21G
 ****
 27  28  30  31  32  35  37  42  43  44  45  46  47 0
 3-21G
 ****
 48  49 0
 3-21G
 ****


