%nproc=1
%NoSave
%Mem=1900MB
#P OB98/GEN NMR

erre ene a

0 1
  C     -217.743      28.327      54.591
  O     -216.473      28.949      54.616
  H     -218.288      28.602      55.500
  H     -217.627      27.238      54.566
  H     -218.314      28.661      53.721
  P     -215.526      28.705      53.343
  C     -214.332      26.639      52.306
  O     -215.176      27.140      53.338
  C     -214.530      25.133      52.159
  O     -215.887      24.866      51.735
  C     -213.637      24.483      51.109
  O     -212.323      24.261      51.595
  C     -214.402      23.199      50.823
  O     -214.105      22.182      51.788
  C     -215.864      23.643      50.965
  N     -218.795      21.471      47.404
  C     -218.381      21.042      48.617
  N     -217.613      21.693      49.516
  C     -217.280      22.913      49.059
  C     -217.621      23.482      47.843
  C     -218.422      22.705      46.990
  N     -218.817      23.125      45.739
  N     -217.048      24.732      47.715
  C     -216.383      24.919      48.838
  N     -216.499      23.850      49.680
  O     -214.151      29.402      53.785
  O     -216.040      29.249      52.052
  H     -213.252      21.786      51.526
  H     -214.123      30.314      53.440
  H     -218.707      20.046      48.898
  H     -215.800      25.799      49.080
  H     -216.469      22.907      51.513
  H     -214.150      22.794      49.841
  H     -213.616      25.092      50.197
  H     -214.384      24.664      53.140
  H     -213.287      26.841      52.564
  H     -214.575      27.154      51.369
  H     -219.370      22.506      45.172
  H     -218.452      23.999      45.381
  P     -211.196      23.790      50.560
  C     -210.676      21.593      49.271
  O     -211.342      22.205      50.364
  O     -209.840      23.948      51.399
  O     -211.157      24.567      49.286
  H     -209.384      24.774      51.154
  H     -210.871      20.541      49.279
  H     -209.623      21.761      49.356
  H     -211.032      22.015      48.355

 6  7  8  9  10  11  12  13  14  15  25  28  32  33  34  35 0
 6-311+G(2d,p)
 ****
 36  37  40 0
 6-311+G(2d,p)
 ****
 1  2  3  4  5  16  17  18  19  20  21  22  23  24 0
 3-21G
 ****
 26  27  29  30  31  38  39 41  42  43  44  45  46  47  48 0
 3-21G
 ****


