%nproc=1
%NoSave
%Mem=1900MB
#P OB98/GEN NMR

erre ene a

0 1
  C       22.447      20.979     -28.168
  O       23.154      21.009     -29.415
  P       22.515      20.513     -30.803
  C       23.346      18.127     -30.282
  O       22.264      18.928     -30.737
  C       22.970      16.641     -30.223
  O       22.055      16.399     -29.110
  C       22.292      16.104     -31.498
  O       22.795      14.779     -31.702
  C       20.826      16.089     -31.093
  O       20.018      15.262     -31.909
  C       20.963      15.618     -29.641
  N       19.768      15.772     -28.816
  C       18.944      14.653     -28.646
  O       19.180      13.588     -29.215
  N       17.838      14.769     -27.836
  C       17.571      15.897     -27.255
  N       16.468      15.940     -26.460
  C       18.400      17.104     -27.421
  C       19.470      16.971     -28.204
  O       23.293      20.939     -32.005
  O       21.040      21.134     -30.840
  H       20.815      21.374     -31.759
  H       20.163      15.521     -32.837
  H       18.146      18.024     -26.913
  H       20.147      17.807     -28.355
  H       21.282      14.568     -29.627
  H       20.433      17.109     -31.156
  H       22.502      16.703     -32.390
  H       23.882      16.069     -30.007
  H       15.930      15.086     -26.362
  H       23.625      18.459     -29.277
  H       16.173      16.762     -25.954
  H       24.206      18.277     -30.945
  P       24.181      14.569     -32.481
  C       23.236      15.172     -34.834
  O       24.143      15.485     -33.796
  O       23.990      13.099     -33.102
  O       25.423      14.619     -31.650
  H       24.867      12.696     -33.246
  H       22.759      16.096     -35.174
  H       22.459      14.475     -34.510
  H       23.787      14.730     -35.669
  H       23.078      21.358     -27.391
  H       22.167      19.972     -27.941
  H       21.568      21.585     -28.242

 3  4  5  6  7  8  9  10  11  12  13  24  27  28  29  30  32 0
 6-311+G(2d,p)
 ****
 34  35 0
 6-311+G(2d,p)
 ****
 1  2  14  15  16  17  18  19  20  21  22  23  25  26 0
 3-21G
 ****
 31  33  36  37  38  39  40  41  42  43  44  45  46 0
 3-21G
 ****


