%nproc=1
%NoSave
%Mem=1900MB
#P OB98/GEN NMR

erre ene a

0 1
  C       83.027    -113.465     211.380
  O       83.093    -114.899     211.367
  P       82.694    -115.810     212.626
  C       80.222    -116.190     211.998
  O       81.490    -116.790     212.212
  C       79.122    -117.237     211.784
  O       79.554    -118.224     210.798
  C       78.721    -118.006     213.056
  O       77.303    -118.193     212.992
  C       79.466    -119.323     212.877
  O       78.966    -120.375     213.679
  C       79.280    -119.521     211.367
  N       80.128    -120.543     210.760
  C       79.744    -121.880     210.910
  O       78.761    -122.197     211.578
  N       80.508    -122.853     210.307
  C       81.560    -122.525     209.624
  N       82.264    -123.535     209.047
  C       82.010    -121.133     209.458
  C       81.255    -120.204     210.044
  O       82.419    -115.027     213.869
  O       83.934    -116.799     212.847
  H       84.053    -116.956     213.805
  H       78.238    -120.803     213.192
  H       82.890    -120.901     208.875
  H       81.503    -119.152     209.943
  H       78.228    -119.748     211.158
  H       80.517    -119.169     213.141
  H       78.967    -117.480     213.983
  H       78.248    -116.729     211.356
  H       81.917    -124.480     209.175
  H       80.283    -115.556     211.108
  H       83.092    -123.394     208.489
  H       79.979    -115.550     212.856
  P       76.328    -117.105     213.657
  C       76.265    -115.264     211.812
  O       75.594    -116.321     212.467
  O       77.373    -116.003     214.178
  O       75.480    -117.581     214.790
  H       76.981    -115.513     214.921
  H       76.117    -115.367     210.735
  H       77.338    -115.262     212.019
  H       75.836    -114.314     212.140
  H       83.341    -113.085     210.430
  H       83.670    -113.085     212.147
  H       82.021    -113.156     211.573

 3  4  5  6  7  8  9  10  11  12  13  24  27  28  29  30  32 0
 6-311+G(2d,p)
 ****
 34  35 0
 6-311+G(2d,p)
 ****
 1  2  14  15  16  17  18  19  20  21  22  23  25  26 0
 3-21G
 ****
 31  33  36  37  38  39  40  41  42  43  44  45  46 0
 3-21G
 ****


