%nproc=1
%NoSave
%Mem=1900MB
#P OB98/GEN NMR

erre ene a

0 1
  C     -302.829     176.878      27.371
  O     -301.904     177.827      26.861
  P     -300.507     177.272      26.310
  C     -299.161     178.521      28.160
  O     -299.482     177.278      27.543
  C     -297.888     178.387      28.986
  O     -298.106     177.485      30.090
  C     -296.699     177.813      28.223
  O     -296.127     178.786      27.363
  C     -295.799     177.397      29.386
  O     -295.115     178.537      29.931
  C     -296.831     176.856      30.399
  N     -294.337     172.381      30.373
  C     -293.895     173.660      30.398
  N     -294.612     174.801      30.380
  C     -295.934     174.525      30.338
  C     -296.536     173.274      30.282
  C     -295.671     172.169      30.309
  N     -296.126     170.865      30.279
  N     -297.903     173.383      30.220
  C     -298.135     174.682      30.255
  N     -296.978     175.419      30.338
  O     -299.979     178.459      25.377
  O     -300.598     175.975      25.557
  H     -294.442     178.198      30.552
  H     -299.476     178.112      24.612
  H     -292.813     173.791      30.445
  H     -299.114     175.146      30.220
  H     -296.573     177.121      31.434
  H     -295.035     176.661      29.098
  H     -296.999     176.940      27.642
  H     -297.637     179.375      29.392
  H     -299.984     178.819      28.823
  H     -295.445     170.135      30.145
  H     -297.111     170.711      30.089
  H     -299.057     179.287      27.386
  P     -294.873     178.334      26.468
  C     -293.463     180.264      27.437
  O     -293.606     178.861      27.305
  O     -294.948     179.375      25.254
  O     -294.863     176.897      26.086
  H     -295.051     180.286      25.571
  H     -292.605     180.478      28.065
  H     -294.353     180.687      27.904
  H     -293.306     180.712      26.445
  H     -303.712     177.383      27.702
  H     -302.387     176.356      28.194
  H     -303.085     176.180      26.601

 3  4  5  6  7  8  9  10  11  12  22  25  29  30  31  32 0
 6-311+G(2d,p)
 ****
 33  36  37 0
 6-311+G(2d,p)
 ****
 1  2  13  14  15  16  17  18  19  20  21  23  24  26 0
 3-21G
 ****
 27  28  34  35  38  39  40  41  42  43  44  45  46  47  48 0
 3-21G
 ****


