%nproc=1
%NoSave
%Mem=1900MB
#P OB98/GEN NMR

erre ene a

0 1
  C     -894.470    -974.178     225.649
  O     -894.780    -974.986     226.765
  H     -893.960    -974.790     224.900
  H     -893.810    -973.364     225.955
  H     -895.380    -973.768     225.199
  P     -895.740    -974.363     227.888
  C     -893.680    -973.730     229.347
  O     -894.920    -974.417     229.263
  C     -893.300    -973.503     230.813
  O     -894.280    -972.599     231.396
  C     -893.280    -974.784     231.660
  O     -892.220    -974.664     232.617
  C     -894.610    -974.730     232.389
  O     -894.640    -975.484     233.595
  C     -894.760    -973.219     232.613
  N     -896.140    -972.830     232.894
  C     -896.600    -972.965     234.201
  O     -895.890    -973.297     235.153
  N     -897.930    -972.682     234.402
  C     -898.820    -972.323     233.446
  O     -900.000    -972.111     233.679
  C     -898.290    -972.218     232.071
  C     -896.990    -972.473     231.871
  O     -896.860    -975.492     228.070
  O     -896.310    -973.021     227.558
  H     -897.610    -975.340     227.456
  H     -893.950    -975.135     234.187
  H     -898.260    -972.786     235.346
  H     -898.980    -971.937     231.292
  H     -896.590    -972.417     230.867
  H     -894.110    -972.894     233.429
  H     -895.410    -975.110     231.736
  H     -893.150    -975.697     231.077
  H     -892.330    -972.979     230.841
  H     -893.770    -972.759     228.841
  H     -892.910    -974.327     228.843
  P     -890.710    -974.621     232.048
  C     -890.750    -977.173     232.688
  O     -890.000    -975.955     232.605
  O     -890.090    -973.448     232.922
  O     -890.660    -974.437     230.574
  H     -890.430    -973.410     233.824
  H     -890.126    -977.950     233.077
  H     -891.095    -977.447     231.713
  H     -891.589    -977.032     233.337

 6  7  8  9  10  11  12  13  14  15  16  27  31  32  33  34  35 0
 6-311+G(2d,p)
 ****
 36  37 0
 6-311+G(2d,p)
 ****
 1  2  3  4  5  17  18  19  20  21  22  23  24  25 0
 3-21G
 ****
 26  28  29  30  38  39  40  41  42  43  44  45 0
 3-21G
 ****


