%nproc=1
%NoSave
%Mem=1900MB
#P OB98/GEN NMR

erre ene a

0 1
  C     -715.664    -684.562    -621.478
  O     -714.698    -684.739    -622.492
  H     -715.170    -684.156    -620.592
  H     -716.121    -685.526    -621.223
  H     -716.436    -683.867    -621.808
  P     -715.205    -685.390    -623.876
  C     -712.972    -684.491    -624.851
  O     -713.907    -685.558    -624.804
  C     -711.875    -684.813    -625.866
  O     -710.960    -685.782    -625.325
  C     -712.399    -685.427    -627.163
  O     -712.957    -684.460    -628.044
  C     -711.128    -686.064    -627.712
  O     -710.338    -685.103    -628.442
  C     -710.412    -686.523    -626.431
  N     -710.512    -687.971    -626.236
  C     -709.386    -688.712    -626.587
  O     -708.353    -688.200    -627.035
  N     -709.486    -690.057    -626.435
  C     -710.600    -690.745    -626.019
  O     -710.661    -691.974    -625.971
  C     -711.758    -689.903    -625.647
  C     -711.662    -688.579    -625.779
  O     -716.013    -684.190    -624.566
  O     -716.033    -686.622    -623.724
  H     -716.970    -684.340    -624.458
  H     -710.850    -684.886    -629.250
  H     -708.685    -690.613    -626.698
  H     -712.646    -690.418    -625.311
  H     -712.503    -687.959    -625.536
  H     -709.337    -686.260    -626.473
  H     -711.348    -686.879    -628.408
  H     -713.123    -686.227    -626.944
  H     -711.310    -683.890    -626.076
  H     -712.510    -684.370    -623.863
  H     -713.488    -683.561    -625.113
  P     -714.474    -684.643    -628.512
  C     -715.501    -682.206    -628.487
  O     -714.893    -683.258    -629.228
  O     -715.250    -684.601    -627.117
  O     -714.717    -685.863    -629.342
  H     -714.840    -683.992    -626.478
  H     -715.700    -681.380    -629.138
  H     -714.841    -681.893    -627.705
  H     -716.419    -682.554    -628.061

 6  7  8  9  10  11  12  13  14  15  16  27  31  32  33  34  35 0
 6-311+G(2d,p)
 ****
 36  37 0
 6-311+G(2d,p)
 ****
 1  2  3  4  5  17  18  19  20  21  22  23  24  25 0
 3-21G
 ****
 26  28  29  30  38  39  40  41  42  43  44  45 0
 3-21G
 ****


