%nproc=1
%NoSave
%Mem=1900MB
#P OB98/GEN NMR

erre ene a

0 1
  C      399.538    -436.733     313.047
  O      399.709    -437.377     314.322
  P      401.021    -437.046     315.195
  C      399.736    -435.587     316.947
  O      400.789    -435.673     315.991
  C      399.546    -434.139     317.396
  O      399.167    -433.302     316.276
  C      398.443    -433.933     318.429
  O      398.855    -434.335     319.723
  C      398.178    -432.432     318.306
  O      399.143    -431.682     319.077
  C      398.398    -432.201     316.792
  N      397.141    -432.035     316.067
  C      396.670    -430.733     315.936
  O      397.230    -429.751     316.443
  N      395.510    -430.581     315.218
  C      394.749    -431.594     314.702
  O      393.704    -431.398     314.092
  C      395.259    -432.955     314.950
  C      396.401    -433.108     315.614
  O      402.069    -436.596     314.058
  O      401.568    -438.190     315.999
  H      399.007    -430.740     318.872
  H      402.980    -436.788     314.363
  H      395.167    -429.637     315.090
  H      394.667    -433.788     314.573
  H      396.781    -434.107     315.799
  H      399.011    -431.305     316.642
  H      397.192    -432.151     318.665
  H      397.536    -434.481     318.116
  H      400.502    -433.770     317.783
  H      399.993    -436.203     317.815
  H      398.821    -435.983     316.502
  P      398.721    -435.900     320.069
  C      401.294    -436.152     320.471
  O      400.152    -436.531     319.734
  O      397.753    -436.399     318.891
  O      398.199    -436.157     321.455
  H      397.905    -435.898     318.059
  H      401.048    -435.924     321.518
  H      401.739    -435.262     320.000
  H      402.021    -436.963     320.443
  H      398.622    -437.061     312.602
  H      400.357    -436.987     312.407
  H      399.508    -435.672     313.184

 3  4  5  6  7  8  9  10  11  12  13  23  28  29  30  31  32 0
 6-311+G(2d,p)
 ****
 33  34 0
 6-311+G(2d,p)
 ****
 1  2  14  15  16  17  18  19  20  21  22  24  25  26 0
 3-21G
 ****
 27  35  36  37  38  39  40  41  42  43  44  45 0
 3-21G
 ****


