%nproc=1
%NoSave
%Mem=1900MB
#P OB98/GEN NMR

erre ene a

0 1
  C       20.637    -628.409    -264.516
  O       21.024    -629.683    -264.996
  H       20.181    -628.531    -263.529
  H       19.904    -627.950    -265.184
  H       21.510    -627.755    -264.426
  P       21.622    -629.740    -266.483
  C       19.762    -631.154    -267.631
  O       21.096    -631.106    -267.139
  C       19.529    -632.476    -268.359
  O       20.526    -632.642    -269.407
  C       19.665    -633.703    -267.468
  O       18.513    -633.940    -266.673
  C       19.885    -634.791    -268.510
  O       18.633    -635.275    -269.036
  C       20.704    -634.063    -269.588
  N       22.114    -634.456    -269.545
  C       22.374    -635.792    -269.809
  O       21.486    -636.628    -270.044
  N       23.687    -636.179    -269.734
  C       24.728    -635.366    -269.391
  O       25.882    -635.783    -269.289
  C       24.401    -633.963    -269.116
  C       23.119    -633.575    -269.207
  O       23.183    -630.003    -266.242
  O       21.387    -628.521    -267.308
  H       23.689    -629.195    -266.416
  H       18.874    -635.974    -269.675
  H       23.894    -637.146    -269.913
  H       25.207    -633.291    -268.827
  H       22.844    -632.545    -268.990
  H       20.307    -634.304    -270.585
  H       20.407    -635.643    -268.081
  H       20.574    -633.621    -266.850
  H       18.543    -632.453    -268.825
  H       19.605    -630.326    -268.340
  H       19.066    -631.028    -266.796
  P       18.715    -634.045    -265.082
  C       18.172    -636.618    -265.001
  O       17.826    -635.296    -264.610
  O       17.895    -632.763    -264.596
  O       20.153    -634.069    -264.665
  H       17.186    -632.517    -265.227
  H       17.465    -637.308    -264.590
  H       19.151    -636.853    -264.638
  H       18.161    -636.689    -266.069

 6  7  8  9  10  11  12  13  14  15  16  27  31  32  33  34  35 0
 6-311+G(2d,p)
 ****
 36  37 0
 6-311+G(2d,p)
 ****
 1  2  3  4  5  17  18  19  20  21  22  23  24  25 0
 3-21G
 ****
 26  28  29  30  38  39  40  41  42  43  44  45 0
 3-21G
 ****


