%nproc=1
%NoSave
%Mem=1900MB
#P OB98/GEN NMR

erre ene a

0 1
  C     -896.550    -899.310    -797.986
  O     -897.120    -898.080    -797.587
  H     -895.840    -899.130    -798.797
  H     -897.320    -900.000    -798.330
  H     -895.990    -899.760    -797.143
  P     -898.270    -898.090    -796.472
  C     -897.000    -896.390    -795.018
  O     -897.580    -897.680    -795.093
  C     -895.460    -896.480    -794.993
  O     -894.990    -896.980    -796.274
  C     -894.750    -895.130    -794.748
  O     -893.540    -895.400    -794.076
  C     -894.500    -894.670    -796.174
  O     -893.580    -893.610    -796.220
  C     -894.070    -896.000    -796.816
  N     -894.130    -895.950    -798.268
  C     -892.910    -895.820    -798.931
  O     -891.860    -895.770    -798.275
  N     -892.890    -895.770    -800.304
  C     -894.030    -895.760    -800.956
  N     -893.940    -895.670    -802.314
  C     -895.360    -895.820    -800.299
  C     -895.330    -895.920    -798.960
  O     -899.100    -899.330    -796.419
  O     -899.160    -896.810    -796.831
  H     -893.870    -892.870    -795.651
  H     -900.000    -897.100    -797.259
  H     -896.250    -895.780    -800.882
  H     -896.260    -895.960    -798.389
  H     -893.070    -896.280    -796.515
  H     -895.420    -894.290    -796.643
  H     -895.370    -894.420    -794.163
  H     -895.170    -897.220    -794.235
  H     -893.020    -895.610    -802.717
  H     -897.360    -895.910    -794.091
  H     -894.750    -895.630    -802.915
  H     -897.310    -895.780    -795.875
  P     -893.380    -895.280    -792.477
  C     -892.460    -897.550    -791.638
  O     -893.620    -896.720    -791.820
  O     -894.200    -894.200    -791.866
  O     -891.810    -895.020    -792.234
  H     -891.690    -894.490    -791.435
  H     -892.752    -898.479    -791.194
  H     -891.762    -897.052    -790.998
  H     -892.003    -897.737    -792.587

 6  7  8  9  10  11  12  13  14  15  16  26  30  31  32  33  35 0
 6-311+G(2d,p)
 ****
 37  38 0
 6-311+G(2d,p)
 ****
 1  2  3  4  5  17  18  19  20  21  22  23  24  25 0
 3-21G
 ****
 27  28  29  34  36  39  40  41  42  43  44  45  46 0
 3-21G
 ****


