%nproc=1
%NoSave
%Mem=1900MB
#P OB98/GEN NMR

erre ene a

0 1
  C       20.886     351.521      97.963
  O       19.904     350.662      98.501
  H       21.241     352.186      98.753
  H       20.456     352.129      97.162
  H       21.737     350.950      97.581
  P       19.349     349.461      97.598
  C       16.775     349.567      97.749
  O       17.967     348.987      98.255
  C       15.671     349.558      98.815
  O       15.241     348.179      99.026
  C       16.111     350.109     100.186
  O       14.951     350.688     100.798
  C       16.528     348.829     100.887
  O       16.726     349.008     102.267
  C       15.381     347.914     100.439
  N       15.587     346.491     100.678
  C       15.128     345.964     101.882
  O       14.558     346.614     102.757
  N       15.350     344.625     102.068
  C       15.956     343.781     101.186
  O       16.100     342.582     101.394
  C       16.426     344.397      99.935
  C       16.219     345.700      99.739
  O       20.319     348.365      97.307
  O       18.869     350.192      96.254
  H       19.536     350.062      95.555
  H       17.506     349.586     102.406
  H       15.021     344.225     102.932
  H       16.922     343.757      99.217
  H       16.544     346.180      98.823
  H       14.446     348.225     100.917
  H       17.485     348.480     100.491
  H       16.899     350.864     100.112
  H       14.802     350.106      98.428
  H       16.453     348.984      96.881
  H       16.982     350.594      97.431
  P       14.822     352.249     101.151
  C       13.430     351.971     103.316
  O       13.465     352.462     101.981
  O       14.950     353.150      99.968
  O       15.977     352.535     102.222
  H       16.239     353.473     102.176
  H       12.473     352.179     103.748
  H       14.193     352.450     103.892
  H       13.597     350.914     103.312

 6  7  8  9  10  11  12  13  14  15  16  27  31  32  33  34  35 0
 6-311+G(2d,p)
 ****
 36  37 0
 6-311+G(2d,p)
 ****
 1  2  3  4  5  17  18  19  20  21  22  23  24  25 0
 3-21G
 ****
 26  28  29  30  38  39  40  41  42  43  44  45 0
 3-21G
 ****


