%nproc=1
%NoSave
%Mem=1900MB
#P OB98/GEN NMR

erre ene a

0 1
  C     -550.442     158.803    -170.034
  O     -549.252     158.206    -169.558
  H     -551.020     159.166    -169.183
  H     -551.037     158.063    -170.580
  H     -550.205     159.648    -170.690
  P     -548.251     157.622    -170.667
  C     -546.528     159.573    -170.516
  O     -546.801     158.200    -170.299
  C     -546.128     160.256    -169.203
  O     -547.308     160.374    -168.360
  C     -545.077     159.478    -168.391
  O     -544.315     160.426    -167.625
  C     -545.958     158.657    -167.462
  O     -545.200     158.105    -166.408
  C     -547.003     159.712    -167.111
  N     -550.255     160.029    -163.175
  C     -549.180     160.769    -163.518
  N     -548.367     160.637    -164.585
  C     -548.776     159.615    -165.360
  C     -549.859     158.782    -165.152
  C     -550.620     159.015    -163.995
  N     -551.714     158.258    -163.639
  N     -549.960     157.847    -166.171
  C     -548.953     158.121    -166.979
  N     -548.211     159.174    -166.529
  O     -548.657     158.425    -171.989
  O     -548.308     156.147    -170.868
  H     -544.729     158.805    -165.907
  H     -549.288     157.899    -172.518
  H     -548.933     161.586    -162.835
  H     -548.718     157.583    -167.891
  H     -546.608     160.465    -166.420
  H     -546.412     157.817    -167.995
  H     -544.400     158.881    -169.013
  H     -545.787     161.277    -169.421
  H     -547.437     160.049    -170.920
  H     -545.716     159.679    -171.248
  H     -552.196     158.477    -162.786
  H     -551.988     157.486    -164.232
  P     -542.756     160.139    -167.362
  C     -541.835     161.901    -169.064
  O     -541.924     161.468    -167.716
  O     -542.377     159.176    -168.586
  O     -542.427     159.490    -166.055
  H     -541.639     158.596    -168.330
  H     -541.248     162.794    -169.114
  H     -542.817     162.098    -169.441
  H     -541.373     161.137    -169.654

 6  7  8  9  10  11  12  13  14  15  25  28  32  33  34  35 0
 6-311+G(2d,p)
 ****
 36  37  40 0
 6-311+G(2d,p)
 ****
 1  2  3  4  5  16  17  18  19  20  21  22  23  24 0
 3-21G
 ****
 26  27  29  30  31  38  39 41  42  43  44  45  46  47  48 0
 3-21G
 ****


