%nproc=1
%NoSave
%Mem=1900MB
#P OB98/GEN NMR

erre ene a

0 1
  C       23.120    -400.786    -212.874
  O       24.465    -401.194    -212.605
  P       25.323    -400.288    -211.593
  C       27.484    -400.306    -213.061
  O       26.859    -400.681    -211.847
  C       28.788    -401.089    -213.266
  O       29.848    -400.509    -212.446
  C       28.694    -402.580    -212.915
  O       29.503    -403.285    -213.871
  C       29.322    -402.649    -211.535
  O       29.787    -403.957    -211.227
  C       30.418    -401.585    -211.673
  N       30.912    -401.115    -210.382
  C       31.985    -401.808    -209.831
  O       32.463    -402.820    -210.340
  N       32.461    -401.321    -208.641
  C       31.933    -400.282    -207.934
  O       32.401    -399.888    -206.869
  C       30.731    -399.662    -208.509
  C       30.283    -400.102    -209.688
  O       24.967    -400.962    -210.188
  O       25.004    -398.833    -211.701
  H       24.870    -401.928    -210.232
  H       29.045    -404.591    -211.327
  H       33.258    -401.788    -208.240
  H       30.246    -398.875    -207.945
  H       29.388    -399.684    -210.128
  H       31.266    -401.984    -212.245
  H       28.589    -402.352    -210.779
  H       27.669    -402.961    -212.948
  H       29.091    -400.975    -214.314
  H       27.719    -399.234    -213.044
  H       26.790    -400.468    -213.890
  P       28.843    -403.678    -215.285
  C       29.090    -406.284    -215.247
  O       29.525    -405.048    -215.760
  O       29.536    -402.581    -216.229
  O       27.352    -403.618    -215.327
  H       30.497    -402.507    -216.090
  H       29.512    -407.086    -215.860
  H       28.003    -406.361    -215.274
  H       29.448    -406.407    -214.220
  H       22.669    -401.474    -213.558
  H       23.124    -399.806    -213.304
  H       22.562    -400.773    -211.961

 3  4  5  6  7  8  9  10  11  12  13  24  28  29  30  31  32 0
 6-311+G(2d,p)
 ****
 33  34 0
 6-311+G(2d,p)
 ****
 1  2  14  15  16  17  18  19  20  21  22  23  25  26  27 0
 3-21G
 ****
 35  36  37  38  39  40  41  42  43  44  45 0
 3-21G
 ****


