%nproc=1
%NoSave
%Mem=1900MB
#P OB98/GEN NMR

erre ene a

0 1
  C       12.746      66.727       4.838
  O       13.920      66.572       4.053
  P       14.614      67.890       3.457
  C       15.820      69.918       4.532
  O       14.849      68.893       4.689
  C       15.333      71.236       5.132
  O       14.162      71.686       4.398
  C       14.939      71.155       6.610
  O       15.256      72.419       7.204
  C       13.431      70.999       6.554
  O       12.803      71.373       7.777
  C       13.108      71.896       5.362
  N        8.977      73.822       3.047
  C       10.111      74.404       3.491
  N       11.167      73.824       4.097
  C       10.970      72.502       4.232
  C        9.851      71.775       3.860
  C        8.816      72.491       3.235
  N        7.664      71.899       2.772
  N       10.007      70.445       4.188
  C       11.196      70.369       4.747
  N       11.824      71.581       4.773
  O       13.421      68.574       2.639
  O       15.800      67.647       2.590
  H       13.076      70.739       8.467
  H       13.607      68.531       1.681
  H       10.183      75.476       3.332
  H       11.642      69.469       5.147
  H       13.105      72.959       5.633
  H       13.174      69.954       6.348
  H       15.427      70.344       7.159
  H       16.115      71.991       4.984
  H       16.003      70.066       3.464
  H        7.034      72.451       2.215
  H        7.617      70.886       2.736
  H       16.757      69.610       5.005
  P       15.500      72.437       8.789
  C       17.193      71.263      10.364
  O       16.545      71.268       9.106
  O       14.119      71.884       9.381
  O       15.837      73.783       9.339
  H       13.974      72.242      10.276
  H       17.366      70.227      10.668
  H       16.595      71.763      11.133
  H       18.156      71.773      10.273
  H       12.404      65.766       5.161
  H       11.985      67.198       4.252
  H       12.965      67.333       5.692

 3  4  5  6  7  8  9  10  11  12  22  25  29  30  31  32 0
 6-311+G(2d,p)
 ****
 33  36  37 0
 6-311+G(2d,p)
 ****
 1  2  13  14  15  16  17  18  19  20  21  23  24  26 0
 3-21G
 ****
 27  28  34  35  38  39  40  41  42  43  44  45  46  47  48 0
 3-21G
 ****


