%nproc=1
%NoSave
%Mem=1900MB
#P OB98/GEN NMR

erre ene a

0 1
  C     -502.764     -13.767      10.733
  O     -502.290     -14.083      12.045
  P     -501.672     -12.860      12.887
  C     -499.279     -12.215      12.144
  O     -500.671     -12.053      11.929
  C     -498.494     -10.957      11.757
  O     -498.927      -9.810      12.542
  C     -496.982     -11.083      11.954
  O     -496.354     -10.323      10.913
  C     -496.754     -10.381      13.282
  O     -495.392     -10.005      13.449
  C     -497.747      -9.230      13.133
  N     -495.822      -6.607      16.999
  C     -495.190      -7.215      15.931
  N     -493.855      -7.052      15.855
  N     -495.815      -7.911      15.018
  C     -497.158      -7.951      15.202
  C     -497.902      -7.381      16.207
  C     -497.196      -6.640      17.230
  O     -497.708      -6.082      18.194
  N     -499.251      -7.623      16.039
  C     -499.295      -8.394      14.963
  N     -498.065      -8.572      14.390
  O     -500.706     -13.590      13.935
  O     -502.706     -12.028      13.573
  H     -495.180      -9.344      12.757
  H     -501.137     -13.655      14.800
  H     -495.292      -6.096      17.683
  H     -500.191      -8.818      14.545
  H     -497.376      -8.438      12.460
  H     -497.037     -11.039      14.113
  H     -493.316      -6.481      16.498
  H     -496.606     -12.114      11.948
  H     -493.368      -7.450      15.057
  H     -498.713     -10.731      10.705
  H     -498.904     -13.062      11.556
  H     -499.108     -12.480      13.194
  P     -495.433     -11.114       9.860
  C     -493.179     -10.558      11.014
  O     -494.107     -11.555      10.632
  O     -494.925      -9.946       8.889
  O     -496.139     -12.181       9.095
  H     -494.905     -10.274       7.969
  H     -492.619     -10.910      11.886
  H     -493.683      -9.616      11.270
  H     -492.485     -10.376      10.191
  H     -503.150     -14.651      10.271
  H     -501.957     -13.381      10.146
  H     -503.539     -13.033      10.801

 3  4  5  6  7  8  9  10  11  12  23  26  30  31 0
 6-311+G(2d,p)
 ****
 33  35  36  37  38 0
 6-311+G(2d,p)
 ****
 1  2  13  14  15  16  17  18  19  20  21  22  24  25 0
 3-21G
 ****
 27  28  29  32  34  39  40  41  42  43  44  45  46  47  48  49 0
 3-21G
 ****


