%nproc=1
%NoSave
%Mem=1900MB
#P OB98/GEN NMR

erre ene a

0 1
  C      190.191    -556.284     208.450
  O      190.194    -557.327     207.485
  P      188.822    -558.139     207.268
  C      187.341    -556.505     205.893
  O      187.672    -557.021     207.176
  C      185.868    -556.762     205.576
  O      185.668    -558.145     205.228
  C      184.914    -556.487     206.732
  O      184.592    -555.112     206.845
  C      183.696    -557.278     206.288
  O      182.958    -556.534     205.298
  C      184.335    -558.517     205.658
  N      181.933    -562.714     207.338
  C      181.552    -561.745     206.474
  N      182.244    -560.655     206.086
  C      183.427    -560.590     206.716
  C      183.938    -561.486     207.652
  C      183.136    -562.603     207.953
  N      183.527    -563.598     208.814
  N      185.180    -561.086     208.079
  C      185.432    -559.979     207.409
  N      184.412    -559.647     206.568
  O      188.571    -558.808     208.695
  O      188.854    -559.142     206.165
  H      182.650    -555.722     205.723
  H      187.998    -559.599     208.595
  H      180.575    -561.871     206.030
  H      186.342    -559.395     207.500
  H      183.789    -558.850     204.765
  H      183.000    -557.485     207.112
  H      185.304    -556.893     207.665
  H      185.595    -556.151     204.701
  H      187.955    -556.994     205.134
  H      182.983    -564.439     208.832
  H      184.496    -563.612     209.108
  H      187.550    -555.431     205.870
  P      184.291    -554.554     208.326
  C      186.722    -553.624     208.419
  O      185.733    -554.441     209.030
  O      183.607    -555.806     209.052
  O      183.436    -553.332     208.358
  H      183.039    -555.499     209.776
  H      187.496    -553.414     209.165
  H      186.299    -552.687     208.075
  H      187.175    -554.165     207.587
  H      191.160    -555.833     208.490
  H      189.945    -556.687     209.410
  H      189.465    -555.547     208.176

 3  4  5  6  7  8  9  10  11  12  22  25  29  30  31  32 0
 6-311+G(2d,p)
 ****
 33  36  37 0
 6-311+G(2d,p)
 ****
 1  2  13  14  15  16  17  18  19  20  21  23  24  26 0
 3-21G
 ****
 27  28  34  35  38  39  40  41  42  43  44  45  46  47  48 0
 3-21G
 ****


