%nproc=1
%NoSave
%Mem=1900MB
#P OB98/GEN NMR

erre ene a

0 1
  C      172.528     433.347     249.507
  O      173.128     434.579     249.879
  P      173.972     435.360     248.749
  C      176.030     434.607     250.152
  O      175.430     435.630     249.363
  C      177.524     434.465     249.832
  O      178.104     433.472     250.721
  C      177.814     434.012     248.386
  O      179.030     434.664     247.993
  C      178.023     432.509     248.561
  O      178.682     431.889     247.469
  C      178.768     432.494     249.883
  N      180.932     427.852     249.960
  C      181.221     428.971     249.246
  N      180.604     430.186     249.289
  C      179.601     430.170     250.185
  C      179.174     429.097     250.974
  C      179.895     427.895     250.837
  N      179.593     426.753     251.556
  N      178.102     429.467     251.753
  C      177.869     430.722     251.442
  N      178.755     431.195     250.527
  O      173.301     436.819     248.744
  O      173.949     434.728     247.390
  H      178.688     430.926     247.594
  H      173.235     437.178     247.846
  H      182.061     428.882     248.561
  H      177.068     431.329     251.846
  H      179.818     432.817     249.777
  H      177.042     432.021     248.660
  H      177.025     434.265     247.671
  H      178.017     435.416     250.034
  H      175.538     433.654     249.941
  H      180.029     425.898     251.240
  H      178.700     426.741     252.041
  H      175.876     434.827     251.217
  P      179.055     435.495     246.627
  C      179.625     433.373     245.282
  O      180.059     434.668     245.671
  O      179.966     436.747     247.044
  O      177.712     435.871     246.053
  H      180.799     436.459     247.463
  H      180.346     432.973     244.577
  H      178.642     433.427     244.815
  H      179.593     432.714     246.161
  H      172.003     432.939     250.345
  H      173.287     432.661     249.193
  H      171.842     433.513     248.703

 3  4  5  6  7  8  9  10  11  12  22  25  29  30  31  32 0
 6-311+G(2d,p)
 ****
 33  36  37 0
 6-311+G(2d,p)
 ****
 1  2  13  14  15  16  17  18  19  20  21  23  24  26 0
 3-21G
 ****
 27  28  34  35  38  39  40  41  42  43  44  45  46  47  48 0
 3-21G
 ****


