%nproc=1
%NoSave
%Mem=1900MB
#P OB98/GEN NMR

erre ene a

0 1
  C     -593.813     622.466     533.541
  O     -595.141     622.038     533.836
  P     -595.692     622.132     535.335
  C     -596.783     624.478     535.399
  O     -596.989     623.070     535.366
  C     -597.745     625.130     536.402
  O     -597.451     626.537     536.576
  C     -599.194     625.081     535.951
  O     -599.820     623.820     535.931
  C     -599.839     626.164     536.799
  O     -600.170     625.678     538.100
  C     -598.688     627.209     536.904
  N     -598.910     628.365     536.027
  C     -599.267     629.549     536.667
  O     -599.431     629.642     537.884
  N     -599.458     630.627     535.851
  C     -599.363     630.638     534.487
  O     -599.570     631.628     533.808
  C     -599.012     629.359     533.869
  C     -598.808     628.288     534.655
  O     -594.672     622.423     536.377
  O     -596.322     620.669     535.572
  H     -600.808     624.950     537.984
  H     -596.086     620.390     536.480
  H     -599.707     631.503     536.295
  H     -598.933     629.317     532.789
  H     -598.539     627.328     534.214
  H     -598.602     627.572     537.925
  H     -600.759     626.551     536.354
  H     -599.223     625.447     534.901
  H     -597.615     624.641     537.371
  H     -596.930     624.903     534.408
  H     -595.735     624.677     535.662
  P     -600.561     623.215     534.632
  C     -598.799     622.911     532.747
  O     -599.506     622.322     533.821
  O     -601.423     624.146     533.846
  O     -601.497     622.089     535.310
  H     -602.313     622.018     534.783
  H     -598.143     622.162     532.309
  H     -598.176     623.742     533.118
  H     -599.496     623.286     531.987
  H     -593.618     622.331     532.497
  H     -593.117     621.887     534.111
  H     -593.707     623.501     533.793

 3  4  5  6  7  8  9  10  11  12  13  23  28  29  30  31  32 0
 6-311+G(2d,p)
 ****
 33  34 0
 6-311+G(2d,p)
 ****
 1  2  14  15  16  17  18  19  20  21  22  24  25  26  27 0
 3-21G
 ****
 35  36  37  38  39  40  41  42  43  44  45 0
 3-21G
 ****


