%nproc=1
%NoSave
%Mem=1900MB
#P OB98/GEN NMR

erre ene a

0 1
  C     -359.605      22.958     155.243
  O     -360.766      23.761     155.315
  H     -358.989      23.155     156.124
  H     -359.026      23.197     154.348
  H     -359.878      21.897     155.239
  P     -361.786      23.743     154.080
  C     -361.995      25.002     151.831
  O     -361.296      24.880     153.063
  C     -361.976      26.459     151.339
  O     -362.773      27.273     152.245
  C     -360.566      27.076     151.286
  O     -360.565      28.051     150.233
  C     -360.489      27.756     152.639
  O     -359.420      28.669     152.701
  C     -361.912      28.318     152.751
  N     -362.257      28.702     154.111
  C     -362.364      30.073     154.361
  O     -362.155      30.883     153.457
  N     -362.670      30.491     155.630
  C     -362.792      29.619     156.582
  N     -363.082      30.102     157.823
  C     -362.631      28.164     156.376
  C     -362.371      27.780     155.127
  O     -363.237      23.799     154.432
  O     -361.427      22.386     153.306
  H     -359.492      29.341     151.987
  H     -362.114      21.715     153.481
  H     -362.721      27.483     157.206
  H     -362.235      26.731     154.875
  H     -362.037      29.192     152.098
  H     -360.314      27.019     153.429
  H     -359.781      26.338     151.119
  H     -362.464      26.502     150.359
  H     -363.172      31.108     157.924
  H     -363.026      24.685     152.004
  H     -363.181      29.521     158.644
  H     -361.544      24.354     151.075
  P     -359.924      27.769     148.790
  C     -358.005      26.314     147.854
  O     -358.503      27.043     148.972
  O     -359.883      28.969     147.899
  O     -360.845      26.627     148.141
  H     -360.853      26.737     147.171
  H     -357.058      25.882     148.103
  H     -357.887      26.975     147.021
  H     -358.695      25.538     147.598

 6  7  8  9  10  11  12  13  14  15  16  26  30  31  32  33  35 0
 6-311+G(2d,p)
 ****
 37  38 0
 6-311+G(2d,p)
 ****
 1  2  3  4  5  17  18  19  20  21  22  23  24  25 0
 3-21G
 ****
 27  28  29  34  36  39  40  41  42  43  44  45  46 0
 3-21G
 ****


