%nproc=1
%NoSave
%Mem=1900MB
#P OB98/GEN NMR

erre ene a

0 1
  C      580.179      79.474     216.233
  O      580.881      80.443     215.475
  H      579.362      79.966     216.763
  H      580.849      79.014     216.968
  H      579.764      78.706     215.573
  P      582.165      79.921     214.668
  C      583.710      81.921     215.267
  O      582.998      81.229     214.248
  C      584.268      83.238     214.736
  O      585.347      82.995     213.811
  C      583.244      84.099     214.003
  O      582.483      84.872     214.915
  C      584.150      84.953     213.125
  O      584.723      86.044     213.881
  C      585.236      83.949     212.716
  N      585.311      84.315     207.676
  C      585.564      85.268     208.642
  N      585.858      86.515     208.207
  N      585.529      85.032     209.928
  C      585.166      83.756     210.224
  C      584.886      82.725     209.356
  C      584.989      82.990     207.936
  O      584.854      82.168     207.029
  N      584.579      81.574     210.035
  C      584.635      81.920     211.312
  N      584.984      83.240     211.473
  O      581.553      79.412     213.277
  O      582.949      78.841     215.335
  H      585.426      85.695     214.461
  H      582.033      78.612     212.995
  H      585.389      84.550     206.702
  H      584.448      81.260     212.150
  H      586.219      84.430     212.602
  H      583.602      85.404     212.300
  H      585.624      86.825     207.272
  H      582.597      83.486     213.364
  H      585.970      87.229     208.920
  H      584.690      83.787     215.588
  H      584.534      81.287     215.610
  H      583.036      82.113     216.113
  P      580.909      84.586     215.016
  C      580.525      87.155     215.139
  O      580.212      85.878     215.676
  O      580.816      83.481     216.173
  O      580.279      84.093     213.755
  H      580.632      82.605     215.776
  H      579.990      87.909     215.677
  H      580.245      87.186     214.107
  H      581.577      87.332     215.229

 6  7  8  9  10  11  12  13  14  15  26  29  33  34 0
 6-311+G(2d,p)
 ****
 36  38  39  40  41 0
 6-311+G(2d,p)
 ****
 1  2  3  4  5  16  17  18  19  20  21  22  23  24  25 0
 3-21G
 ****
 27  28  30  31  32  35  37  42  43  44  45  46  47 0
 3-21G
 ****
 48  49 0
 3-21G
 ****


