%nproc=1
%NoSave
%Mem=1900MB
#P OB98/GEN NMR

erre ene a

0 1
  C      317.780     -49.910    -408.250
  O      317.119     -51.166    -408.390
  P      316.842     -51.725    -409.868
  C      318.904     -51.801    -411.420
  O      318.170     -52.459    -410.392
  C      319.816     -52.796    -412.157
  O      320.764     -53.356    -411.211
  C      319.087     -53.996    -412.776
  O      318.591     -53.879    -414.106
  C      320.213     -55.033    -412.827
  O      321.013     -54.824    -414.006
  C      321.044     -54.723    -411.579
  N      322.027     -59.294    -409.494
  C      322.486     -58.693    -410.617
  N      322.173     -57.471    -411.099
  C      321.299     -56.850    -410.295
  C      320.744     -57.338    -409.120
  C      321.140     -58.622    -408.725
  N      320.664     -59.240    -407.591
  N      319.876     -56.414    -408.575
  C      319.893     -55.398    -409.412
  N      320.745     -55.607    -410.463
  O      316.221     -50.763    -410.825
  O      315.861     -52.962    -409.587
  H      320.443     -55.058    -414.765
  H      315.196     -53.008    -410.299
  H      323.202     -59.265    -411.199
  H      319.303     -54.495    -409.306
  H      322.116     -54.800    -411.769
  H      319.836     -56.055    -412.881
  H      318.286     -54.352    -412.115
  H      320.379     -52.262    -412.935
  H      319.508     -51.006    -410.981
  H      320.962     -60.180    -407.400
  H      319.953     -58.779    -407.034
  H      318.181     -51.321    -412.081
  P      317.041     -53.599    -414.396
  C      315.637     -51.410    -414.696
  O      316.896     -52.002    -414.473
  O      316.091     -54.263    -413.453
  O      316.883     -54.047    -415.921
  H      317.345     -53.474    -416.556
  H      315.716     -50.335    -414.502
  H      314.882     -51.836    -414.026
  H      315.338     -51.557    -415.737
  H      317.890     -49.678    -407.211
  H      317.201     -49.147    -408.726
  H      318.746     -49.962    -408.708

 3  4  5  6  7  8  9  10  11  12  22  25  29  30  31  32 0
 6-311+G(2d,p)
 ****
 33  36  37 0
 6-311+G(2d,p)
 ****
 1  2  13  14  15  16  17  18  19  20  21  23  24  26 0
 3-21G
 ****
 27  28  34  35  38  39  40  41  42  43  44  45  46  47  48 0
 3-21G
 ****


