%nproc=1
%NoSave
%Mem=1900MB
#P OB98/GEN NMR

erre ene a

0 1
  C      191.723     222.266      -8.515
  O      191.821     221.684      -9.799
  H      192.357     223.157      -8.483
  H      192.065     221.562      -7.752
  H      190.690     222.559      -8.312
  P      191.038     220.297     -10.014
  C      193.128     219.358     -11.263
  O      191.744     219.666     -11.313
  C      193.738     219.505     -12.654
  O      195.124     219.101     -12.647
  C      193.069     218.645     -13.722
  O      191.848     219.195     -14.190
  C      194.143     218.656     -14.793
  O      194.131     219.923     -15.476
  C      195.421     218.500     -13.936
  N      195.835     217.106     -13.771
  C      196.456     216.499     -14.869
  O      196.626     217.123     -15.915
  N      196.843     215.185     -14.768
  C      196.640     214.533     -13.665
  N      197.030     213.229     -13.625
  C      196.006     215.136     -12.479
  C      195.632     216.409     -12.599
  O      189.611     220.753     -10.580
  O      190.972     219.392      -8.830
  H      194.221     220.613     -14.795
  H      189.095     219.960     -10.863
  H      195.847     214.549     -11.584
  H      195.156     216.918     -11.768
  H      196.257     219.062     -14.373
  H      194.003     217.881     -15.548
  H      192.927     217.614     -13.378
  H      193.710     220.570     -12.924
  H      197.405     212.825     -14.473
  H      193.242     218.328     -10.907
  H      196.752     212.599     -12.883
  H      193.638     220.033     -10.571
  P      190.581     218.213     -14.296
  C      190.872     218.715     -16.828
  O      189.980     218.382     -15.773
  O      189.492     218.932     -13.372
  O      190.838     216.802     -13.866
  H      188.973     218.279     -12.864
  H      190.327     218.792     -17.745
  H      191.617     217.952     -16.919
  H      191.344     219.651     -16.614

 6  7  8  9  10  11  12  13  14  15  16  26  30  31  32  33  35 0
 6-311+G(2d,p)
 ****
 37  38 0
 6-311+G(2d,p)
 ****
 1  2  3  4  5  17  18  19  20  21  22  23  24  25 0
 3-21G
 ****
 27  28  29  34  36  39  40  41  42  43  44  45  46 0
 3-21G
 ****


