%nproc=1
%NoSave
%Mem=1900MB
#P OB98/GEN NMR

erre ene a

0 1
  C        9.474    -468.069     368.316
  O        8.639    -468.445     369.420
  P        9.255    -468.840     370.851
  C       10.288    -471.119     370.270
  O       10.549    -469.774     370.671
  C       11.364    -472.111     370.738
  O       10.931    -473.484     370.537
  C       12.723    -471.967     370.029
  O       13.709    -472.349     370.987
  C       12.613    -473.013     368.926
  O       13.873    -473.391     368.385
  C       11.886    -474.128     369.668
  N       10.957    -479.066     368.662
  C       11.498    -478.453     369.743
  N       11.675    -477.132     369.949
  C       11.195    -476.415     368.923
  C       10.614    -476.901     367.763
  C       10.508    -478.299     367.645
  N       10.003    -478.928     366.530
  N       10.267    -475.861     366.913
  C       10.653    -474.770     367.558
  N       11.215    -475.053     368.772
  O        8.248    -469.374     371.822
  O        9.871    -467.467     371.408
  H       14.471    -473.596     369.126
  H        9.604    -467.352     372.340
  H       11.834    -479.114     370.540
  H       10.565    -473.755     367.174
  H       12.575    -474.706     370.296
  H       12.008    -472.604     368.106
  H       12.912    -470.962     369.649
  H       11.489    -471.978     371.817
  H       10.210    -471.151     369.176
  H       10.052    -479.938     366.502
  H        9.780    -478.378     365.710
  H        9.313    -471.420     370.682
  P       14.549    -471.264     371.814
  C       16.753    -471.540     370.543
  O       15.659    -470.689     370.812
  O       15.081    -471.743     373.125
  O       13.542    -470.031     372.002
  H       13.850    -469.462     372.734
  H       17.441    -471.541     371.397
  H       17.286    -471.176     369.659
  H       16.416    -472.568     370.349
  H        8.863    -467.848     367.466
  H       10.136    -468.875     368.079
  H       10.045    -467.204     368.580

 3  4  5  6  7  8  9  10  11  12  22  25  29  30  31  32 0
 6-311+G(2d,p)
 ****
 33  36  37 0
 6-311+G(2d,p)
 ****
 1  2  13  14  15  16  17  18  19  20  21  23  24  26 0
 3-21G
 ****
 27  28  34  35  38  39  40  41  42  43  44  45  46  47  48 0
 3-21G
 ****


