%nproc=1
%NoSave
%Mem=1900MB
#P OB98/GEN NMR

erre ene a

0 1
  C      205.299      19.153      44.373
  O      206.446      19.750      43.755
  P      206.764      21.286      44.084
  C      206.046      23.521      42.959
  O      205.677      22.207      43.345
  C      204.888      24.214      42.235
  O      204.586      23.579      40.976
  C      203.581      24.198      43.014
  O      203.542      25.233      43.989
  C      202.572      24.475      41.911
  O      202.543      25.885      41.616
  C      203.166      23.701      40.728
  N      200.724      20.549      37.508
  C      201.112      21.839      37.387
  N      201.743      22.615      38.295
  C      201.980      21.927      39.423
  C      201.641      20.610      39.693
  C      200.980      19.906      38.675
  N      200.590      18.593      38.801
  N      202.038      20.254      40.965
  C      202.620      21.328      41.451
  N      202.603      22.369      40.559
  O      208.104      21.565      43.254
  O      206.954      21.567      45.539
  H      203.451      26.144      41.374
  H      208.670      22.193      43.739
  H      200.892      22.309      36.434
  H      203.069      21.404      42.430
  H      203.037      24.231      39.777
  H      201.553      24.187      42.189
  H      203.399      23.206      43.454
  H      205.184      25.253      42.036
  H      206.926      23.489      42.309
  H      200.146      18.147      38.013
  H      200.801      18.105      39.657
  H      206.342      24.084      43.850
  P      203.762      24.807      45.520
  C      202.200      24.627      47.589
  O      202.320      24.925      46.213
  O      204.585      26.041      46.120
  O      204.477      23.511      45.705
  H      205.168      25.737      46.844
  H      201.258      25.043      47.957
  H      203.022      25.065      48.164
  H      202.188      23.544      47.734
  H      205.216      18.133      44.061
  H      204.419      19.687      44.083
  H      205.406      19.193      45.437

 3  4  5  6  7  8  9  10  11  12  22  25  29  30  31  32 0
 6-311+G(2d,p)
 ****
 33  36  37 0
 6-311+G(2d,p)
 ****
 1  2  13  14  15  16  17  18  19  20  21  23  24  26 0
 3-21G
 ****
 27  28  34  35  38  39  40  41  42  43  44  45  46  47  48 0
 3-21G
 ****


