%nproc=1
%NoSave
%Mem=1900MB
#P OB98/GEN NMR

erre ene a

0 1
  C      217.978    -264.838     -57.082
  O      216.946    -265.601     -56.485
  H      217.898    -264.926     -58.168
  H      218.951    -265.217     -56.767
  H      217.884    -263.781     -56.806
  P      216.725    -265.436     -54.906
  C      214.627    -263.921     -54.605
  O      215.142    -265.246     -54.681
  C      213.195    -263.888     -55.144
  O      213.248    -263.984     -56.603
  C      212.309    -265.040     -54.646
  O      210.974    -264.542     -54.472
  C      212.324    -266.021     -55.806
  O      211.208    -266.901     -55.837
  C      212.365    -265.051     -56.995
  N      212.832    -265.694     -58.228
  C      211.865    -266.092     -59.150
  O      210.658    -265.871     -59.043
  N      212.340    -266.783     -60.238
  C      213.641    -267.122     -60.477
  O      214.000    -267.765     -61.464
  C      214.613    -266.683     -59.464
  C      214.171    -266.002     -58.404
  O      217.317    -263.978     -54.612
  O      217.349    -266.489     -54.050
  H      218.271    -264.030     -54.399
  H      211.433    -267.675     -55.275
  H      211.651    -267.080     -60.915
  H      215.652    -266.942     -59.616
  H      214.860    -265.679     -57.622
  H      211.373    -264.616     -57.169
  H      213.239    -266.630     -55.771
  H      212.655    -265.500     -53.714
  H      212.749    -262.915     -54.902
  H      215.253    -263.255     -55.201
  H      214.647    -263.587     -53.561
  P      210.157    -265.051     -53.187
  C      211.073    -263.490     -51.280
  O      210.036    -263.776     -52.220
  O      211.248    -265.988     -52.475
  O      208.871    -265.726     -53.538
  H      212.160    -265.648     -52.577
  H      210.820    -262.609     -50.727
  H      211.994    -263.332     -51.802
  H      211.182    -264.315     -50.607

 6  7  8  9  10  11  12  13  14  15  16  27  31  32  33  34  35 0
 6-311+G(2d,p)
 ****
 36  37 0
 6-311+G(2d,p)
 ****
 1  2  3  4  5  17  18  19  20  21  22  23  24  25 0
 3-21G
 ****
 26  28  29  30  38  39  40  41  42  43  44  45 0
 3-21G
 ****


