%nproc=1
%NoSave
%Mem=1900MB
#P OB98/GEN NMR

erre ene a

0 1
  C      213.378    -269.507     319.333
  O      212.010    -269.659     319.019
  H      213.650    -270.253     320.088
  H      213.561    -268.513     319.749
  H      214.004    -269.660     318.449
  P      211.402    -268.823     317.792
  C      212.113    -266.629     318.944
  O      211.047    -267.365     318.357
  C      211.716    -266.165     320.347
  O      212.797    -265.421     320.947
  C      210.504    -265.238     320.371
  O      209.305    -265.962     320.183
  C      210.662    -264.607     321.750
  O      210.179    -265.488     322.774
  C      212.203    -264.448     321.839
  N      212.663    -263.096     321.520
  C      213.386    -262.441     322.512
  O      213.608    -262.931     323.618
  N      213.836    -261.184     322.189
  C      213.563    -260.507     321.035
  O      213.948    -259.356     320.819
  C      212.760    -261.237     320.044
  C      212.357    -262.475     320.323
  O      210.300    -269.485     317.034
  O      212.674    -268.547     316.859
  H      210.368    -265.056     323.631
  H      212.679    -269.177     316.111
  H      214.355    -260.690     322.899
  H      212.522    -260.727     319.114
  H      211.762    -263.027     319.604
  H      212.551    -264.697     322.853
  H      210.111    -263.671     321.849
  H      210.609    -264.453     319.613
  H      211.536    -267.059     320.962
  H      212.327    -265.757     318.321
  H      213.005    -267.264     318.983
  P      208.269    -265.550     319.034
  C      207.718    -263.284     320.094
  O      207.198    -264.540     319.686
  O      207.672    -266.687     318.274
  O      209.122    -264.596     318.070
  H      209.342    -265.072     317.242
  H      206.931    -262.691     320.511
  H      208.135    -262.779     319.248
  H      208.479    -263.435     320.830

 6  7  8  9  10  11  12  13  14  15  16  26  31  32  33  34  35 0
 6-311+G(2d,p)
 ****
 36  37 0
 6-311+G(2d,p)
 ****
 1  2  3  4  5  17  18  19  20  21  22  23  24  25 0
 3-21G
 ****
 27  28  29  30  38  39  40  41  42  43  44  45 0
 3-21G
 ****


