%nproc=1
%NoSave
%Mem=1900MB
#P OB98/GEN NMR

erre ene a

0 1
  C     -123.255     109.728    -644.123
  O     -122.501     109.940    -642.948
  H     -124.146     110.365    -644.085
  H     -123.572     108.681    -644.184
  H     -122.668     109.995    -645.005
  P     -121.122     109.116    -642.800
  C     -121.884     107.099    -641.344
  O     -121.571     107.575    -642.649
  C     -121.480     105.626    -641.212
  O     -122.323     104.816    -642.066
  C     -120.017     105.358    -641.602
  O     -119.430     104.460    -640.660
  C     -120.120     104.705    -642.974
  O     -119.001     103.867    -643.259
  C     -121.482     103.994    -642.890
  N     -122.065     103.784    -644.214
  C     -121.442     102.841    -645.039
  O     -120.439     102.240    -644.648
  N     -121.934     102.638    -646.307
  C     -122.924     103.356    -646.735
  N     -123.354     103.126    -648.010
  C     -123.576     104.401    -645.924
  C     -123.109     104.560    -644.679
  O     -120.624     109.515    -641.335
  O     -120.116     109.367    -643.883
  H     -118.190     104.430    -643.236
  H     -119.676     109.251    -641.194
  H     -124.390     104.989    -646.326
  H     -123.531     105.299    -644.006
  H     -121.370     103.014    -642.400
  H     -120.157     105.485    -643.745
  H     -119.421     106.265    -641.654
  H     -121.676     105.302    -640.175
  H     -122.872     102.411    -648.541
  H     -122.958     107.200    -641.179
  H     -124.096     103.647    -648.452
  H     -121.340     107.692    -640.602
  P     -118.865     105.130    -639.308
  C     -116.572     105.765    -640.352
  O     -117.768     106.228    -639.732
  O     -117.998     103.965    -638.641
  O     -119.942     105.645    -638.403
  H     -118.514     103.519    -637.938
  H     -115.941     106.599    -640.577
  H     -116.816     105.249    -641.257
  H     -116.061     105.099    -639.688

 6  7  8  9  10  11  12  13  14  15  16  26  30  31  32  33  35 0
 6-311+G(2d,p)
 ****
 37  38 0
 6-311+G(2d,p)
 ****
 1  2  3  4  5  17  18  19  20  21  22  23  24  25 0
 3-21G
 ****
 27  28  29  34  36  39  40  41  42  43  44  45  46 0
 3-21G
 ****


