%nproc=1
%NoSave
%Mem=1900MB
#P OB98/GEN NMR

erre ene a

0 1
  C      -52.734    -114.942      22.917
  O      -52.557    -114.936      21.514
  H      -53.309    -115.829      23.195
  H      -53.286    -114.051      23.231
  H      -51.764    -114.975      23.420
  P      -51.783    -113.671      20.901
  C      -52.637    -111.416      19.953
  O      -52.835    -112.458      20.896
  C      -53.083    -110.077      20.535
  O      -52.454    -109.841      21.812
  C      -52.764    -108.872      19.657
  O      -53.757    -108.693      18.662
  C      -52.753    -107.752      20.686
  O      -54.096    -107.328      21.003
  C      -52.099    -108.433      21.896
  N      -48.325    -105.938      24.136
  C      -49.690    -105.772      24.244
  N      -50.118    -104.773      25.048
  N      -50.564    -106.509      23.612
  C      -49.996    -107.430      22.799
  C      -48.659    -107.692      22.603
  C      -47.705    -106.903      23.352
  O      -46.487    -107.057      23.362
  N      -48.480    -108.719      21.712
  C      -49.703    -109.053      21.345
  N      -50.657    -108.295      21.973
  O      -51.639    -114.039      19.348
  O      -50.455    -113.375      21.509
  H      -54.056    -106.524      21.549
  H      -50.771    -113.725      19.031
  H      -47.700    -105.361      24.670
  H      -49.948    -109.836      20.642
  H      -52.499    -108.056      22.844
  H      -52.232    -106.869      20.314
  H      -49.516    -104.009      25.318
  H      -51.767    -108.964      19.210
  H      -51.116    -104.606      25.066
  H      -54.164    -110.143      20.718
  H      -53.224    -111.635      19.055
  H      -51.578    -111.368      19.685
  P      -53.606    -107.455      17.657
  C      -53.230    -104.893      17.854
  O      -53.432    -106.122      18.536
  O      -55.078    -107.310      17.044
  O      -52.595    -107.647      16.578
  H      -55.091    -107.650      16.130
  H      -53.132    -104.101      18.567
  H      -54.067    -104.697      17.216
  H      -52.339    -104.954      17.265

 6  7  8  9  10  11  12  13  14  15  26  29  33  34 0
 6-311+G(2d,p)
 ****
 36  38  39  40  41 0
 6-311+G(2d,p)
 ****
 1  2  3  4  5  16  17  18  19  20  21  22  23  24  25 0
 3-21G
 ****
 27  28  30  31  32  35  37  42  43  44  45  46  47 0
 3-21G
 ****
 48  49 0
 3-21G
 ****


