%nproc=1
%NoSave
%Mem=1900MB
#P OB98/GEN NMR

erre ene a

0 1
  C     -872.560     293.193     627.082
  O     -872.609     292.117     626.129
  P     -871.359     291.146     625.885
  C     -870.565     291.448     623.453
  O     -870.328     291.801     624.828
  C     -869.309     291.680     622.577
  O     -868.161     290.917     623.054
  C     -869.513     291.289     621.089
  O     -868.674     292.187     620.345
  C     -868.966     289.884     621.050
  O     -868.613     289.450     619.741
  C     -867.761     290.036     621.995
  N     -865.774     285.446     620.826
  C     -865.930     286.571     620.104
  N     -866.438     287.750     620.489
  C     -866.763     287.745     621.799
  C     -866.646     286.661     622.678
  C     -866.150     285.471     622.120
  N     -866.047     284.300     622.858
  N     -867.130     287.007     623.923
  C     -867.511     288.281     623.786
  N     -867.313     288.743     622.536
  O     -871.733     289.735     625.571
  O     -870.543     291.198     627.278
  H     -867.816     289.928     619.456
  H     -870.301     290.289     627.530
  H     -865.603     286.497     619.067
  H     -867.958     288.842     624.588
  H     -866.900     290.498     621.484
  H     -869.711     289.173     621.443
  H     -870.545     291.369     620.752
  H     -869.035     292.727     622.678
  H     -871.383     292.035     623.076
  H     -865.739     283.458     622.361
  H     -866.416     284.267     623.790
  H     -870.842     290.379     623.416
  P     -869.275     293.451     619.556
  C     -869.993     292.231     617.428
  O     -870.428     292.888     618.594
  O     -868.262     294.313     618.885
  O     -870.098     294.273     620.679
  H     -870.229     295.189     620.357
  H     -869.651     292.975     616.687
  H     -870.814     291.659     617.012
  H     -869.156     291.540     617.653
  H     -873.496     293.711     627.084
  H     -871.778     293.872     626.814
  H     -872.370     292.797     628.058

 3  4  5  6  7  8  9  10  11  12  22  25  29  30  31  32 0
 6-311+G(2d,p)
 ****
 33  36  37 0
 6-311+G(2d,p)
 ****
 1  2  13  14  15  16  17  18  19  20  21  23  24  26 0
 3-21G
 ****
 27  28  34  35  38  39  40  41  42  43  44  45  46  47  48 0
 3-21G
 ****


