%nproc=1
%NoSave
%Mem=1900MB
#P OB98/GEN NMR

erre ene a

0 1
  C       31.040      71.334      -2.962
  O       30.719      72.700      -2.829
  H       30.119      70.750      -2.886
  H       31.713      71.035      -2.154
  H       31.510      71.124      -3.926
  P       31.769      73.791      -3.345
  C       34.267      74.292      -2.930
  O       33.078      73.704      -2.418
  C       35.360      74.375      -1.865
  O       34.941      75.264      -0.807
  C       35.650      73.020      -1.214
  O       36.605      72.230      -1.902
  C       36.171      73.435       0.160
  O       37.590      73.657       0.135
  C       35.427      74.746       0.439
  N       33.975      74.119       5.301
  C       35.246      74.054       4.761
  N       36.240      73.749       5.623
  N       35.501      74.256       3.495
  C       34.395      74.452       2.742
  C       33.085      74.517       3.161
  C       32.819      74.367       4.576
  O       31.715      74.432       5.106
  N       32.224      74.691       2.104
  C       33.008      74.643       1.045
  N       34.338      74.580       1.385
  O       31.115      75.183      -2.887
  O       32.027      73.790      -4.821
  H       38.008      72.895      -0.311
  H       31.356      75.881      -3.522
  H       33.845      73.984       6.287
  H       32.670      74.696       0.016
  H       36.100      75.505       0.859
  H       35.988      72.651       0.899
  H       36.090      73.501       6.587
  H       34.726      72.454      -1.071
  H       37.155      73.506       5.236
  H       36.265      74.809      -2.308
  H       33.997      75.294      -3.268
  H       34.622      73.735      -3.801
  P       36.374      70.663      -2.113
  C       36.529      68.526      -0.596
  O       36.745      69.911      -0.756
  O       37.564      70.253      -3.100
  O       35.038      70.279      -2.657
  H       37.247      70.204      -4.021
  H       36.845      68.226       0.381
  H       37.091      67.990      -1.332
  H       35.488      68.311      -0.716

 6  7  8  9  10  11  12  13  14  15  26  29  33  34 0
 6-311+G(2d,p)
 ****
 36  38  39  40  41 0
 6-311+G(2d,p)
 ****
 1  2  3  4  5  16  17  18  19  20  21  22  23  24  25 0
 3-21G
 ****
 27  28  30  31  32  35  37  42  43  44  45  46  47 0
 3-21G
 ****
 48  49 0
 3-21G
 ****


