%nproc=1
%NoSave
%Mem=1900MB
#P OB98/GEN NMR

erre ene a

0 1
  C     -155.781       6.316    -166.696
  O     -156.898       5.469    -166.487
  P     -156.639       4.013    -165.871
  C     -156.711       4.838    -163.410
  O     -155.956       4.199    -164.430
  C     -156.959       3.887    -162.240
  O     -157.426       4.640    -161.089
  C     -158.009       2.812    -162.535
  O     -157.661       1.603    -161.842
  C     -159.266       3.357    -161.888
  O     -160.193       2.316    -161.583
  C     -158.675       4.058    -160.664
  N     -162.825       4.885    -157.903
  C     -162.061       3.740    -158.017
  N     -162.518       2.646    -157.372
  N     -160.946       3.678    -158.695
  C     -160.616       4.850    -159.293
  C     -161.285       6.052    -159.241
  C     -162.522       6.103    -158.496
  O     -163.259       7.077    -158.379
  N     -160.622       7.023    -159.945
  C     -159.579       6.405    -160.460
  N     -159.551       5.076    -160.123
  O     -155.449       3.449    -166.781
  O     -157.818       3.102    -165.910
  H     -160.868       2.701    -160.995
  H     -155.793       2.783    -167.404
  H     -163.684       4.880    -157.376
  H     -158.833       6.859    -161.099
  H     -158.451       3.346    -159.862
  H     -159.757       4.067    -162.562
  H     -163.403       2.611    -156.888
  H     -158.147       2.592    -163.599
  H     -162.000       1.783    -157.476
  H     -156.005       3.427    -161.953
  H     -157.671       5.153    -163.821
  H     -156.178       5.731    -163.064
  P     -158.421       0.272    -162.322
  C     -156.712       0.220    -164.284
  O     -158.057       0.098    -163.871
  O     -159.959       0.712    -162.339
  O     -158.177      -0.918    -161.456
  H     -160.534      -0.066    -162.220
  H     -156.379      -0.736    -164.697
  H     -156.048       0.501    -163.460
  H     -156.647       0.985    -165.063
  H     -156.111       7.246    -167.109
  H     -155.099       5.847    -167.374
  H     -155.289       6.495    -165.763

 3  4  5  6  7  8  9  10  11  12  23  26  30  31 0
 6-311+G(2d,p)
 ****
 33  35  36  37  38 0
 6-311+G(2d,p)
 ****
 1  2  13  14  15  16  17  18  19  20  21  22  24  25 0
 3-21G
 ****
 27  28  29  32  34  39  40  41  42  43  44  45  46  47  48  49 0
 3-21G
 ****


