%nproc=1
%NoSave
%Mem=1900MB
#P OB98/GEN NMR

erre ene a

0 1
  C     -751.775    1730.343    -169.274
  O     -751.142    1730.991    -170.370
  P     -751.994    1731.024    -171.744
  C     -752.918    1733.414    -171.326
  O     -753.230    1732.036    -171.543
  C     -753.991    1734.320    -171.910
  O     -754.192    1734.049    -173.339
  C     -755.360    1734.195    -171.256
  O     -755.972    1735.479    -171.240
  C     -756.108    1733.278    -172.178
  O     -757.515    1733.363    -171.987
  C     -755.607    1733.806    -173.519
  N     -759.163    1731.579    -176.349
  C     -759.274    1732.335    -175.217
  N     -760.547    1732.588    -174.796
  N     -758.259    1732.812    -174.556
  C     -757.066    1732.521    -175.100
  C     -756.806    1731.784    -176.249
  C     -757.954    1731.243    -176.949
  O     -757.897    1730.536    -177.959
  N     -755.459    1731.716    -176.509
  C     -754.919    1732.363    -175.490
  N     -755.842    1732.924    -174.639
  O     -752.693    1729.579    -171.770
  O     -751.158    1731.259    -172.975
  H     -757.958    1732.901    -172.730
  H     -752.209    1728.992    -172.373
  H     -759.980    1731.202    -176.822
  H     -753.854    1732.474    -175.336
  H     -756.088    1734.767    -173.793
  H     -755.818    1732.234    -172.056
  H     -761.374    1732.285    -175.278
  H     -755.326    1733.784    -170.214
  H     -760.670    1733.188    -173.988
  H     -753.648    1735.364    -171.819
  H     -751.944    1733.633    -171.798
  H     -752.761    1733.585    -170.252
  P     -755.931    1736.332    -169.900
  C     -754.930    1738.401    -171.116
  O     -754.780    1737.448    -170.088
  O     -755.298    1735.302    -168.850
  O     -757.250    1736.843    -169.443
  H     -755.737    1735.422    -167.965
  H     -754.383    1739.294    -170.854
  H     -755.972    1738.647    -171.307
  H     -754.472    1737.987    -172.029
  H     -751.131    1730.376    -168.420
  H     -751.976    1729.324    -169.530
  H     -752.694    1730.841    -169.048

 3  4  5  6  7  8  9  10  11  12  23  26  30  31 0
 6-311+G(2d,p)
 ****
 33  35  36  37  38 0
 6-311+G(2d,p)
 ****
 1  2  13  14  15  16  17  18  19  20  21  22  24  25 0
 3-21G
 ****
 27  28  29  32  34  39  40  41  42  43  44  45  46  47  48  49 0
 3-21G
 ****


