%nproc=1
%NoSave
%Mem=1900MB
#P OB98/GEN NMR

erre ene a

0 1
  C      136.179       8.003     472.344
  O      135.312       8.184     473.458
  P      135.694       9.327     474.521
  C      137.298       9.498     476.594
  O      136.817       8.737     475.496
  C      137.621       8.591     477.795
  O      136.437       7.841     478.132
  C      138.710       7.553     477.554
  O      139.196       7.101     478.821
  C      137.933       6.440     476.882
  O      138.637       5.203     476.936
  C      136.582       6.480     477.638
  N      135.417       6.107     476.802
  C      135.477       4.918     476.081
  O      136.432       4.149     476.084
  N      134.392       4.639     475.293
  C      133.260       5.403     475.189
  O      132.349       5.152     474.412
  C      133.190       6.570     476.083
  C      134.264       6.867     476.821
  O      134.391       9.439     475.443
  O      136.049      10.636     473.887
  H      138.662       4.935     477.890
  H      133.894      10.239     475.230
  H      134.436       3.818     474.713
  H      132.292       7.163     476.086
  H      134.239       7.740     477.471
  H      136.593       5.792     478.504
  H      137.773       6.681     475.827
  H      139.548       7.899     476.932
  H      137.868       9.223     478.659
  H      136.547      10.251     476.877
  H      138.203      10.049     476.296
  P      140.476       7.847     479.443
  C      142.941       8.155     478.782
  O      141.701       7.556     478.444
  O      140.742       7.590     480.888
  O      140.156       9.395     479.169
  H      140.702       9.948     479.757
  H      143.745       7.518     478.401
  H      143.061       8.266     479.871
  H      143.004       9.140     478.310
  H      135.804       7.215     471.725
  H      137.158       7.748     472.692
  H      136.226       8.910     471.778

 3  4  5  6  7  8  9  10  11  12  13  23  28  29  30  31  32 0
 6-311+G(2d,p)
 ****
 33  34 0
 6-311+G(2d,p)
 ****
 1  2  14  15  16  17  18  19  20  21  22  24  25  26  27 0
 3-21G
 ****
 35  36  37  38  39  40  41  42  43  44  45 0
 3-21G
 ****


