%nproc=1
%NoSave
%Mem=1900MB
#P OB98/GEN NMR

erre ene a

0 1
  C     1217.407     583.306    -346.679
  O     1216.593     584.046    -347.571
  P     1215.047     584.311    -347.273
  C     1212.889     583.422    -348.377
  O     1214.253     583.151    -348.039
  C     1212.478     582.702    -349.666
  O     1213.249     583.252    -350.788
  C     1212.691     581.179    -349.656
  O     1211.635     580.637    -350.453
  C     1214.021     581.050    -350.369
  O     1214.229     579.716    -350.877
  C     1213.918     582.141    -351.430
  N     1215.226     582.515    -351.960
  C     1215.578     581.993    -353.201
  O     1214.829     581.191    -353.770
  N     1216.787     582.342    -353.766
  C     1217.598     583.077    -353.082
  N     1218.771     583.419    -353.696
  C     1217.324     583.559    -351.726
  C     1216.124     583.265    -351.221
  O     1214.578     585.703    -347.559
  O     1214.875     583.885    -345.744
  H     1214.867     579.758    -351.611
  H     1215.228     584.584    -345.142
  H     1218.074     584.139    -351.175
  H     1215.819     583.568    -350.232
  H     1213.272     581.819    -352.270
  H     1214.839     581.252    -349.668
  H     1212.676     580.757    -348.654
  H     1211.422     582.936    -349.871
  H     1218.910     583.066    -354.644
  H     1212.779     584.493    -348.513
  H     1219.465     584.048    -353.286
  H     1212.240     583.127    -347.536
  P     1211.225     579.081    -350.339
  C     1210.973     577.242    -352.088
  O     1211.718     578.380    -351.693
  O     1209.794     578.837    -349.981
  O     1212.240     578.483    -349.228
  H     1211.894     577.625    -348.921
  H     1211.224     577.010    -353.150
  H     1209.906     577.403    -352.007
  H     1211.248     576.360    -351.476
  H     1218.402     583.249    -347.068
  H     1217.009     582.319    -346.569
  H     1217.425     583.792    -345.726

 3  4  5  6  7  8  9  10  11  12  13  23  27  28  29  30  32 0
 6-311+G(2d,p)
 ****
 34  35 0
 6-311+G(2d,p)
 ****
 1  2  14  15  16  17  18  19  20  21  22  24  25  26 0
 3-21G
 ****
 31  33  36  37  38  39  40  41  42  43  44  45  46 0
 3-21G
 ****


