%nproc=1
%NoSave
%Mem=1900MB
#P OB98/GEN NMR

erre ene a

0 1
  C      235.717     244.299     309.631
  O      235.549     245.001     310.846
  H      234.957     244.603     308.906
  H      236.705     244.531     309.227
  H      235.653     243.220     309.808
  P      234.111     244.874     311.548
  C      234.144     247.147     312.796
  O      233.571     246.372     311.750
  C      233.759     248.610     312.637
  O      234.385     249.166     311.459
  C      232.266     248.864     312.456
  O      231.564     248.810     313.689
  C      232.287     250.274     311.884
  O      232.452     251.229     312.953
  C      233.543     250.258     311.000
  N      233.590     252.430     306.345
  C      233.944     252.900     307.564
  N      233.895     252.271     308.758
  C      233.436     251.017     308.618
  C      233.039     250.399     307.442
  C      233.123     251.163     306.266
  N      232.746     250.681     305.029
  N      232.640     249.103     307.680
  C      232.792     248.936     308.979
  N      233.265     250.069     309.589
  O      234.463     244.404     313.040
  O      233.159     243.933     310.888
  H      233.361     251.118     313.290
  H      233.770     243.792     313.350
  H      234.321     253.919     307.585
  H      232.580     248.020     309.516
  H      234.128     251.178     311.112
  H      231.370     250.538     311.349
  H      231.834     248.180     311.717
  H      234.143     249.158     313.509
  H      235.234     247.056     312.762
  H      233.010     251.195     304.207
  H      232.403     249.727     304.976
  H      233.785     246.761     313.755
  P      229.958     248.829     313.628
  C      229.892     249.357     316.169
  O      229.492     249.746     314.860
  O      229.559     247.351     314.100
  O      229.376     249.161     312.296
  H      228.684     247.110     313.740
  H      229.510     250.058     316.882
  H      230.960     249.338     316.225
  H      229.506     248.383     316.385

 6  7  8  9  10  11  12  13  14  15  25  28  32  33  34  35 0
 6-311+G(2d,p)
 ****
 36  39  40 0
 6-311+G(2d,p)
 ****
 1  2  3  4  5  16  17  18  19  20  21  22  23  24 0
 3-21G
 ****
 26  27  29  30  31  37  38  41  42  43  44  45  46  47  48 0
 3-21G
 ****


