%nproc=1
%NoSave
%Mem=1900MB
#P OB98/GEN NMR

erre ene a

0 1
  C     -445.378     446.365    -305.431
  O     -444.084     446.941    -305.434
  P     -443.675     447.862    -304.185
  C     -442.581     450.216    -303.958
  O     -443.332     449.316    -304.771
  C     -441.919     451.296    -304.823
  O     -440.817     450.695    -305.563
  C     -442.849     451.971    -305.849
  O     -442.425     453.342    -305.949
  C     -442.532     451.194    -307.113
  O     -442.963     451.845    -308.296
  C     -441.026     451.030    -306.960
  N     -440.170     449.618    -311.808
  C     -440.664     450.766    -311.274
  N     -440.854     451.069    -309.970
  C     -440.462     450.045    -309.189
  C     -439.957     448.823    -309.587
  C     -439.811     448.613    -310.968
  N     -439.318     447.455    -311.513
  N     -439.701     448.018    -308.487
  C     -440.047     448.743    -307.452
  N     -440.488     449.990    -307.817
  O     -442.226     447.302    -303.780
  O     -444.629     447.831    -303.032
  H     -442.435     452.653    -308.443
  H     -442.121     447.281    -302.809
  H     -440.950     451.540    -311.995
  H     -439.989     448.429    -306.413
  H     -440.472     451.961    -307.164
  H     -443.046     450.239    -307.081
  H     -443.909     451.934    -305.542
  H     -441.482     452.037    -304.148
  H     -441.806     449.661    -303.440
  H     -439.436     447.330    -312.513
  H     -439.254     446.648    -310.896
  H     -443.251     450.658    -303.210
  P     -443.361     454.377    -306.756
  C     -442.890     455.906    -308.767
  O     -442.479     454.769    -308.038
  O     -443.204     455.677    -305.846
  O     -444.773     453.934    -307.004
  H     -442.279     455.887    -305.659
  H     -442.152     456.119    -309.544
  H     -442.958     456.784    -308.098
  H     -443.864     455.721    -309.234
  H     -445.511     445.781    -306.318
  H     -446.114     447.141    -305.401
  H     -445.487     445.737    -304.571

 3  4  5  6  7  8  9  10  11  12  22  25  29  30  31  32 0
 6-311+G(2d,p)
 ****
 33  36  37 0
 6-311+G(2d,p)
 ****
 1  2  13  14  15  16  17  18  19  20  21  23  24  26 0
 3-21G
 ****
 27  28  34  35  38  39  40  41  42  43  44  45  46  47  48 0
 3-21G
 ****


