%nproc=1
%NoSave
%Mem=1900MB
#P OB98/GEN NMR

erre ene a

0 1
  C      254.125    -285.795     255.748
  O      254.454    -286.549     254.598
  H      253.072    -285.509     255.691
  H      254.734    -284.889     255.783
  H      254.283    -286.386     256.652
  P      255.940    -287.150     254.526
  C      257.104    -284.949     253.798
  O      256.938    -285.924     254.819
  C      258.538    -284.424     253.782
  O      258.767    -283.647     254.998
  C      259.615    -285.519     253.730
  O      260.709    -285.027     252.946
  C      260.073    -285.614     255.176
  O      261.373    -286.188     255.302
  C      259.987    -284.143     255.585
  N      262.765    -282.522     259.452
  C      263.024    -282.510     258.094
  N      264.205    -281.985     257.706
  N      262.194    -282.972     257.198
  C      261.036    -283.439     257.726
  C      260.661    -283.510     259.045
  C      261.602    -283.021     260.033
  O      261.437    -283.022     261.249
  N      259.419    -284.076     259.177
  C      259.041    -284.344     257.938
  N      259.991    -283.975     257.023
  O      256.129    -287.425     252.961
  O      256.177    -288.376     255.342
  H      261.355    -287.070     254.876
  H      255.889    -288.347     252.748
  H      263.441    -282.165     260.102
  H      258.106    -284.801     257.653
  H      260.823    -283.552     255.192
  H      259.371    -286.224     255.756
  H      264.869    -281.566     258.337
  H      259.268    -286.474     253.325
  H      264.392    -281.925     256.712
  H      258.645    -283.729     252.942
  H      256.418    -284.117     253.987
  H      256.861    -285.398     252.829
  P      260.676    -285.282     251.366
  C      262.709    -286.902     251.417
  O      261.347    -286.710     251.075
  O      261.781    -284.257     250.818
  O      259.345    -285.048     250.731
  H      261.566    -283.996     249.903
  H      263.004    -287.898     251.162
  H      262.838    -286.750     252.468
  H      263.314    -286.202     250.879

 6  7  8  9  10  11  12  13  14  15  26  29  33  34 0
 6-311+G(2d,p)
 ****
 36  38  39  40  41 0
 6-311+G(2d,p)
 ****
 1  2  3  4  5  16  17  18  19  20  21  22  23  24  25 0
 3-21G
 ****
 27  28  30  31  32  35  37  42  43  44  45  46  47 0
 3-21G
 ****
 48  49 0
 3-21G
 ****


