%nproc=1
%NoSave
%Mem=1900MB
#P OB98/GEN NMR

erre ene a

0 1
  C      -24.561       4.453     -63.541
  O      -24.126       5.738     -63.938
  H      -25.138       4.550     -62.617
  H      -23.698       3.809     -63.351
  H      -25.197       4.010     -64.312
  P      -23.414       5.845     -65.376
  C      -25.137       4.866     -67.097
  O      -24.609       6.001     -66.433
  C      -26.539       5.161     -67.630
  O      -27.425       5.388     -66.507
  C      -26.609       6.391     -68.536
  O      -27.552       6.134     -69.578
  C      -27.135       7.480     -67.617
  O      -27.773       8.528     -68.345
  C      -28.047       6.678     -66.679
  N      -28.250       7.346     -65.395
  C      -29.048       8.494     -65.403
  O      -29.526       8.909     -66.460
  N      -29.253       9.169     -64.226
  C      -28.652       8.775     -63.146
  N      -28.877       9.498     -62.017
  C      -27.758       7.601     -63.102
  C      -27.612       6.936     -64.246
  O      -22.902       4.345     -65.595
  O      -22.347       6.884     -65.454
  H      -28.561       8.149     -68.795
  H      -23.543       3.670     -65.318
  H      -27.268       7.321     -62.181
  H      -26.980       6.057     -64.303
  H      -29.029       6.515     -67.142
  H      -26.306       7.923     -67.051
  H      -25.649       6.664     -68.971
  H      -26.908       4.267     -68.146
  H      -29.482      10.308     -62.094
  H      -25.180       4.013     -66.413
  H      -28.424       9.314     -61.135
  H      -24.463       4.612     -67.920
  P      -27.061       6.167     -71.103
  C      -25.577       4.064     -70.946
  O      -26.699       4.674     -71.566
  O      -26.035       7.198     -71.432
  O      -28.424       6.451     -71.908
  H      -28.215       7.057     -72.646
  H      -25.444       3.078     -71.340
  H      -25.740       4.007     -69.890
  H      -24.701       4.647     -71.141

 6  7  8  9  10  11  12  13  14  15  16  26  30  31  32  33  35 0
 6-311+G(2d,p)
 ****
 37  38 0
 6-311+G(2d,p)
 ****
 1  2  3  4  5  17  18  19  20  21  22  23  24  25 0
 3-21G
 ****
 27  28  29  34  36  39  40  41  42  43  44  45  46 0
 3-21G
 ****


