%nproc=1
%NoSave
%Mem=1900MB
#P OB98/GEN NMR

erre ene a

0 1
  C      162.428     -16.617     -31.108
  O      162.040     -17.832     -31.763
  P      162.430     -18.142     -33.289
  C      164.683     -19.075     -32.459
  O      164.028     -18.234     -33.403
  C      165.063     -20.427     -33.071
  O      165.949     -20.249     -34.195
  C      165.783     -21.375     -32.116
  O      164.861     -21.996     -31.240
  C      166.476     -22.316     -33.096
  O      165.557     -23.314     -33.568
  C      166.862     -21.363     -34.233
  N      171.241     -20.785     -36.812
  C      170.027     -21.249     -37.183
  N      168.909     -21.379     -36.436
  C      169.125     -20.937     -35.184
  C      170.307     -20.438     -34.660
  C      171.405     -20.369     -35.533
  N      172.643     -19.907     -35.148
  N      170.152     -20.111     -33.328
  C      168.892     -20.390     -33.061
  N      168.231     -20.893     -34.148
  O      161.797     -17.224     -34.282
  O      161.954     -19.652     -33.531
  H      165.152     -23.734     -32.787
  H      161.738     -19.781     -34.474
  H      169.943     -21.564     -38.219
  H      168.416     -20.246     -32.100
  H      166.737     -21.833     -35.215
  H      167.327     -22.839     -32.650
  H      166.540     -20.826     -31.544
  H      164.146     -20.892     -33.450
  H      164.006     -19.235     -31.611
  H      173.390     -19.919     -35.826
  H      172.788     -19.641     -34.186
  H      165.583     -18.562     -32.100
  P      165.094     -21.939     -29.656
  C      162.924     -20.780     -28.926
  O      164.320     -20.643     -29.114
  O      166.509     -22.068     -29.207
  O      164.195     -23.141     -29.099
  H      164.593     -23.489     -28.280
  H      162.415     -20.681     -29.888
  H      162.580     -19.987     -28.258
  H      162.681     -21.750     -28.481
  H      162.063     -16.622     -30.102
  H      162.015     -15.781     -31.633
  H      163.495     -16.541     -31.100

 3  4  5  6  7  8  9  10  11  12  22  25  29  30  31  32 0
 6-311+G(2d,p)
 ****
 33  36  37 0
 6-311+G(2d,p)
 ****
 1  2  13  14  15  16  17  18  19  20  21  23  24  26 0
 3-21G
 ****
 27  28  34  35  38  39  40  41  42  43  44  45  46  47  48 0
 3-21G
 ****


