%nproc=1
%NoSave
%Mem=1900MB
#P OB98/GEN NMR

erre ene a

0 1
  C      -60.525     151.019       1.747
  O      -60.600     151.138       3.158
  P      -59.784     150.073       4.040
  C      -57.550     151.342       3.661
  O      -58.260     150.118       3.538
  C      -56.044     151.115       3.518
  O      -55.378     152.408       3.465
  C      -55.407     150.317       4.666
  O      -54.358     149.530       4.088
  C      -54.847     151.419       5.546
  O      -53.876     150.976       6.479
  C      -54.350     152.393       4.482
  N      -51.418     155.234       7.557
  C      -51.347     153.933       7.195
  N      -52.160     153.247       6.364
  C      -53.124     154.047       5.878
  C      -53.334     155.384       6.170
  C      -52.424     155.985       7.054
  N      -52.504     157.312       7.428
  N      -54.442     155.864       5.503
  C      -54.895     154.834       4.820
  N      -54.121     153.721       4.999
  O      -60.311     148.668       3.486
  O      -59.975     150.200       5.519
  H      -53.656     151.699       7.100
  H      -60.414     148.021       4.208
  H      -50.529     153.367       7.631
  H      -55.780     154.836       4.199
  H      -53.421     152.049       4.012
  H      -55.666     151.863       6.124
  H      -56.111     149.654       5.176
  H      -55.859     150.615       2.559
  H      -57.739     151.773       4.649
  H      -51.932     157.591       8.211
  H      -53.366     157.799       7.214
  H      -57.915     152.049       2.909
  P      -54.291     147.963       4.423
  C      -55.293     147.542       2.095
  O      -55.425     147.318       3.485
  O      -55.001     147.927       5.858
  O      -52.936     147.345       4.384
  H      -55.853     148.398       5.847
  H      -56.066     146.972       1.575
  H      -54.311     147.207       1.748
  H      -55.427     148.604       1.873
  H      -61.113     151.789       1.292
  H      -60.899     150.062       1.449
  H      -59.506     151.117       1.434

 3  4  5  6  7  8  9  10  11  12  22  25  29  30  31  32 0
 6-311+G(2d,p)
 ****
 33  36  37 0
 6-311+G(2d,p)
 ****
 1  2  13  14  15  16  17  18  19  20  21  23  24  26 0
 3-21G
 ****
 27  28  34  35  38  39  40  41  42  43  44  45  46  47  48 0
 3-21G
 ****


