%nproc=1
%NoSave
%Mem=1900MB
#P OB98/GEN NMR

erre ene a

0 1
  C     -229.520     210.369    -152.661
  O     -228.178     210.524    -152.181
  P     -227.102     211.457    -152.916
  C     -226.809     213.431    -151.284
  O     -226.246     212.234    -151.805
  C     -226.318     213.718    -149.861
  O     -227.067     212.956    -148.897
  C     -224.850     213.387    -149.629
  O     -224.018     214.408    -150.156
  C     -224.814     213.261    -148.099
  O     -224.736     214.560    -147.485
  C     -226.177     212.605    -147.815
  N     -224.455     208.808    -144.856
  C     -224.399     210.150    -144.720
  N     -224.877     211.104    -145.551
  C     -225.489     210.536    -146.619
  C     -225.617     209.180    -146.898
  C     -225.059     208.293    -145.956
  N     -225.102     206.926    -146.099
  N     -226.269     208.982    -148.087
  C     -226.553     210.195    -148.514
  N     -226.106     211.167    -147.657
  O     -227.687     212.350    -153.969
  O     -226.053     210.435    -153.562
  H     -225.511     215.070    -147.799
  H     -225.646     210.834    -154.351
  H     -223.904     210.516    -143.821
  H     -227.093     210.432    -149.428
  H     -226.627     213.019    -146.898
  H     -223.965     212.677    -147.744
  H     -224.605     212.423    -150.078
  H     -226.512     214.787    -149.653
  H     -227.902     213.324    -151.279
  H     -224.654     206.358    -145.405
  H     -225.511     206.532    -146.935
  H     -226.543     214.258    -151.947
  P     -222.526     214.062    -150.617
  C     -222.630     214.021    -153.185
  O     -222.289     214.772    -152.030
  O     -222.154     212.614    -150.569
  O     -221.604     214.929    -149.632
  H     -220.751     214.480    -149.493
  H     -221.837     213.306    -153.403
  H     -222.751     214.706    -154.028
  H     -223.573     213.484    -153.025
  H     -230.055     209.703    -152.016
  H     -229.500     209.966    -153.652
  H     -230.007     211.322    -152.673

 3  4  5  6  7  8  9  10  11  12  22  25  29  30  31  32 0
 6-311+G(2d,p)
 ****
 33  36  37 0
 6-311+G(2d,p)
 ****
 1  2  13  14  15  16  17  18  19  20  21  23  24  26 0
 3-21G
 ****
 27  28  34  35  38  39  40  41  42  43  44  45  46  47  48 0
 3-21G
 ****


