%nproc=1
%NoSave
%Mem=1900MB
#P OB98/GEN NMR

erre ene a

0 1
  C       65.591      98.385     342.086
  O       66.080      97.254     342.778
  H       65.606      98.171     341.014
  H       66.224      99.254     342.279
  H       64.561      98.599     342.385
  P       66.224      97.328     344.372
  C       64.187      95.864     344.982
  O       65.608      95.965     344.956
  C       63.768      94.420     345.282
  O       64.103      93.612     344.128
  C       64.496      93.838     346.506
  O       63.607      93.294     347.480
  C       65.527      92.903     345.887
  O       65.932      91.837     346.720
  C       64.860      92.473     344.575
  N       65.803      92.042     343.545
  C       66.019      90.674     343.407
  O       65.457      89.800     344.065
  N       66.923      90.311     342.442
  C       67.621      91.159     341.635
  O       68.414      90.775     340.783
  C       67.368      92.594     341.844
  C       66.486      92.963     342.777
  O       65.705      98.573     345.011
  O       67.797      97.148     344.626
  H       66.377      92.224     347.502
  H       68.195      98.016     344.823
  H       67.078      89.323     342.326
  H       67.913      93.295     341.228
  H       66.274      94.014     342.955
  H       64.165      91.650     344.750
  H       66.426      93.487     345.655
  H       65.020      94.629     347.058
  H       62.678      94.386     345.406
  H       63.810      96.173     344.002
  H       63.783      96.535     345.749
  P       63.676      93.600     349.044
  C       61.231      94.262     349.724
  O       62.245      93.269     349.680
  O       64.298      94.901     349.420
  O       64.625      92.424     349.609
  H       65.117      92.803     350.366
  H       60.353      93.855     350.182
  H       61.000      94.580     348.729
  H       61.576      95.099     350.295

 6  7  8  9  10  11  12  13  14  15  16  26  31  32  33  34  35 0
 6-311+G(2d,p)
 ****
 36  37 0
 6-311+G(2d,p)
 ****
 1  2  3  4  5  17  18  19  20  21  22  23  24  25 0
 3-21G
 ****
 27  28  29  30  38  39  40  41  42  43  44  45 0
 3-21G
 ****


