%nproc=1
%NoSave
%Mem=1900MB
#P OB98/GEN NMR

erre ene a

0 1
  C       34.451    -146.856     543.570
  O       35.214    -147.471     544.586
  H       33.691    -146.209     544.017
  H       35.117    -146.243     542.951
  H       33.971    -147.609     542.937
  P       34.464    -148.553     545.505
  C       34.353    -150.414     543.686
  O       34.898    -149.994     544.928
  C       35.270    -151.441     543.018
  O       36.451    -150.754     542.514
  C       35.749    -152.546     543.972
  O       35.788    -153.785     543.259
  C       37.161    -152.117     544.332
  O       37.977    -153.214     544.724
  C       37.612    -151.430     543.038
  N       42.510    -150.352     542.046
  C       41.683    -151.314     541.587
  N       40.385    -151.531     541.889
  C       39.936    -150.584     542.748
  C       40.665    -149.541     543.313
  C       42.013    -149.441     542.929
  N       42.869    -148.484     543.428
  N       39.864    -148.806     544.169
  C       38.682    -149.396     544.123
  N       38.686    -150.481     543.287
  O       32.938    -148.405     545.026
  O       34.611    -148.371     546.976
  H       37.868    -153.926     544.059
  H       32.542    -147.626     545.460
  H       42.125    -152.012     540.879
  H       37.809    -149.087     544.685
  H       37.972    -152.141     542.287
  H       37.132    -151.395     545.164
  H       35.114    -152.651     544.846
  H       34.752    -151.860     542.145
  H       34.241    -149.539     543.029
  H       43.842    -148.524     543.145
  H       42.540    -147.838     544.127
  H       33.365    -150.860     543.859
  P       34.611    -154.837     543.568
  C       33.221    -154.480     541.405
  O       34.017    -155.372     542.173
  O       33.434    -153.907     544.147
  O       34.998    -155.903     544.542
  H       33.101    -154.288     544.977
  H       32.898    -154.970     540.510
  H       33.799    -153.616     541.150
  H       32.367    -154.182     541.976

 6  7  8  9  10  11  12  13  14  15  25  28  32  33  34  35 0
 6-311+G(2d,p)
 ****
 36  39  40 0
 6-311+G(2d,p)
 ****
 1  2  3  4  5  16  17  18  19  20  21  22  23  24 0
 3-21G
 ****
 26  27  29  30  31  37  38  41  42  43  44  45  46  47 0
 3-21G
 ****
 48 0
 3-21G
 ****


