%nproc=1
%NoSave
%Mem=1900MB
#P OB98/GEN NMR

erre ene a

0 1
  C     -897.850    -698.354    -548.146
  O     -896.960    -697.362    -548.608
  P     -897.250    -695.814    -548.327
  C     -895.580    -695.487    -546.403
  O     -896.950    -695.535    -546.769
  C     -895.220    -694.134    -545.785
  O     -895.560    -693.077    -546.729
  C     -895.940    -693.813    -544.470
  O     -895.020    -693.046    -543.674
  C     -897.080    -692.923    -544.905
  O     -897.610    -692.126    -543.852
  C     -896.410    -692.133    -546.029
  N     -897.380    -688.076    -548.969
  C     -896.370    -688.349    -548.117
  N     -896.200    -689.443    -547.350
  C     -897.200    -690.312    -547.527
  C     -898.320    -690.161    -548.337
  C     -898.390    -688.988    -549.101
  N     -899.400    -688.702    -549.991
  N     -899.160    -691.247    -548.195
  C     -898.560    -692.042    -547.338
  N     -897.350    -691.549    -546.942
  O     -898.560    -695.315    -548.808
  O     -896.040    -695.056    -549.062
  H     -898.450    -691.732    -544.151
  H     -896.360    -694.629    -549.877
  H     -895.590    -687.589    -548.054
  H     -898.960    -692.964    -546.947
  H     -895.760    -691.334    -545.635
  H     -897.900    -693.550    -545.301
  H     -896.270    -694.703    -543.918
  H     -894.130    -694.099    -545.653
  H     -894.980    -695.652    -547.304
  H     -899.270    -687.895    -550.589
  H     -900.000    -689.466    -550.307
  H     -895.360    -696.293    -545.696
  P     -895.200    -692.979    -542.077
  C     -893.260    -694.623    -541.757
  O     -894.640    -694.352    -541.500
  O     -896.570    -692.597    -541.615
  O     -894.100    -691.902    -541.622
  H     -894.310    -691.583    -540.738
  H     -893.160    -695.014    -542.782
  H     -892.900    -695.366    -541.052
  H     -892.650    -693.720    -541.659
  H     -897.487    -699.319    -548.430
  H     -898.816    -698.195    -548.578
  H     -897.922    -698.300    -547.080

 3  4  5  6  7  8  9  10  11  12  22  25  29  30  31  32 0
 6-311+G(2d,p)
 ****
 33  36  37 0
 6-311+G(2d,p)
 ****
 1  2  13  14  15  16  17  18  19  20  21  23  24  26 0
 3-21G
 ****
 27  28  34  35  38  39  40  41  42  43  44  45  46  47  48 0
 3-21G
 ****


