%nproc=1
%NoSave
%Mem=1900MB
#P OB98/GEN NMR

erre ene a

0 1
  C       57.020    -141.474     -16.419
  O       56.995    -142.367     -17.515
  P       55.878    -143.512     -17.598
  C       54.112    -142.332     -19.047
  O       54.444    -142.807     -17.747
  C       52.806    -142.960     -19.529
  O       52.954    -144.387     -19.703
  C       51.647    -142.799     -18.558
  O       51.149    -141.474     -18.537
  C       50.673    -143.844     -19.089
  O       49.948    -143.337     -20.220
  C       51.637    -144.969     -19.530
  N       51.663    -146.075     -18.587
  C       50.532    -146.903     -18.578
  O       49.559    -146.632     -19.275
  N       50.540    -148.010     -17.766
  C       51.526    -148.205     -16.947
  N       51.509    -149.351     -16.215
  C       52.665    -147.268     -16.812
  C       52.676    -146.248     -17.671
  O       55.954    -144.556     -16.532
  O       56.100    -144.166     -19.046
  H       56.153    -145.138     -18.946
  H       49.140    -143.876     -20.299
  H       53.428    -147.441     -16.071
  H       53.483    -145.519     -17.661
  H       51.348    -145.350     -20.515
  H       49.937    -144.147     -18.341
  H       51.969    -143.083     -17.547
  H       52.551    -142.516     -20.501
  H       50.726    -149.975     -16.346
  H       54.922    -142.599     -19.736
  H       52.350    -149.753     -15.808
  H       54.028    -141.240     -19.021
  P       50.219    -141.064     -17.293
  C       52.333    -140.502     -15.909
  O       51.105    -141.204     -15.966
  O       49.185    -142.286     -17.193
  O       49.503    -139.764     -17.453
  H       48.308    -141.952     -16.927
  H       52.631    -140.408     -14.858
  H       52.246    -139.502     -16.340
  H       53.101    -141.069     -16.442
  H       57.830    -140.786     -16.538
  H       57.152    -142.026     -15.512
  H       56.097    -140.935     -16.377

 3  4  5  6  7  8  9  10  11  12  13  24  27  28  29  30  32 0
 6-311+G(2d,p)
 ****
 34  35 0
 6-311+G(2d,p)
 ****
 1  2  14  15  16  17  18  19  20  21  22  23  25  26 0
 3-21G
 ****
 31  33  36  37  38  39  40  41  42  43  44  45  46 0
 3-21G
 ****


