%nproc=1
%NoSave
%Mem=1900MB
#P OB98/GEN NMR

erre ene a

0 1
  C      606.997    -171.972     -75.983
  O      605.813    -172.395     -75.327
  P      605.394    -171.737     -73.931
  C      603.255    -170.520     -74.773
  O      603.801    -171.540     -73.964
  C      602.077    -169.824     -74.062
  O      600.973    -170.758     -74.019
  C      602.348    -169.436     -72.613
  O      601.381    -168.459     -72.215
  C      602.080    -170.738     -71.881
  O      601.827    -170.539     -70.497
  C      600.910    -171.346     -72.697
  N      601.009    -172.813     -72.779
  C      600.606    -173.532     -71.664
  O      600.107    -173.009     -70.666
  N      600.866    -174.877     -71.686
  C      601.522    -175.533     -72.689
  O      602.021    -176.647     -72.566
  C      601.711    -174.772     -73.939
  C      601.474    -173.455     -73.917
  O      605.969    -170.244     -74.051
  O      605.921    -172.435     -72.725
  H      601.041    -169.950     -70.430
  H      606.838    -170.185     -73.613
  H      600.706    -175.375     -70.822
  H      602.088    -175.291     -74.804
  H      601.652    -172.856     -74.803
  H      599.936    -171.093     -72.250
  H      602.969    -171.381     -71.971
  H      603.359    -169.062     -72.424
  H      601.766    -168.956     -74.647
  H      602.927    -170.946     -75.725
  H      604.017    -169.773     -75.010
  P      601.839    -167.326     -71.179
  C      599.568    -166.210     -71.612
  O      600.495    -166.643     -70.637
  O      602.892    -166.386     -71.666
  O      602.344    -168.174     -69.914
  H      602.907    -167.618     -69.351
  H      598.561    -166.259     -71.183
  H      599.600    -166.837     -72.503
  H      599.787    -165.177     -71.884
  H      607.114    -172.519     -76.895
  H      607.840    -172.152     -75.349
  H      606.931    -170.926     -76.200

 3  4  5  6  7  8  9  10  11  12  13  23  28  29  30  31  32 0
 6-311+G(2d,p)
 ****
 33  34 0
 6-311+G(2d,p)
 ****
 1  2  14  15  16  17  18  19  20  21  22  24  25  26  27 0
 3-21G
 ****
 35  36  37  38  39  40  41  42  43  44  45 0
 3-21G
 ****


