%nproc=1
%NoSave
%Mem=1900MB
#P OB98/GEN NMR

erre ene a

0 1
  C      703.740    -499.207    -256.446
  O      703.888    -500.372    -255.664
  H      702.972    -498.577    -255.992
  H      703.421    -499.477    -257.456
  H      704.672    -498.640    -256.496
  P      705.161    -501.311    -255.913
  C      706.230    -500.982    -253.587
  O      706.345    -500.759    -254.986
  C      707.017    -499.925    -252.801
  O      706.562    -498.608    -253.193
  C      706.774    -500.050    -251.291
  O      707.879    -499.581    -250.532
  C      705.591    -499.124    -251.067
  O      705.487    -498.666    -249.719
  C      705.878    -498.013    -252.077
  N      702.086    -494.815    -250.907
  C      703.006    -495.419    -250.074
  N      702.906    -495.128    -248.755
  N      703.926    -496.247    -250.493
  C      703.865    -496.503    -251.822
  C      702.984    -495.984    -252.743
  C      701.989    -495.040    -252.276
  O      701.138    -494.497    -252.968
  N      703.228    -496.484    -253.997
  C      704.245    -497.302    -253.838
  N      704.685    -497.330    -252.534
  O      705.654    -500.900    -257.383
  O      704.906    -502.785    -255.812
  H      706.218    -498.038    -249.569
  H      706.181    -501.619    -257.776
  H      701.414    -494.161    -250.540
  H      704.707    -497.887    -254.625
  H      706.543    -497.257    -251.641
  H      704.674    -499.676    -251.291
  H      702.096    -494.658    -248.381
  H      706.540    -501.068    -250.989
  H      703.352    -495.783    -248.110
  H      708.082    -499.984    -253.059
  H      706.628    -501.979    -253.391
  H      705.181    -500.984    -253.287
  P      708.826    -500.656    -249.814
  C      711.165    -500.062    -250.901
  O      710.096    -500.967    -250.731
  O      707.977    -502.007    -249.863
  O      709.218    -500.298    -248.414
  H      707.739    -502.298    -248.967
  H      711.894    -500.490    -251.556
  H      711.615    -499.859    -249.952
  H      710.797    -499.151    -251.324

 6  7  8  9  10  11  12  13  14  15  26  29  33  34 0
 6-311+G(2d,p)
 ****
 36  38  39  40  41 0
 6-311+G(2d,p)
 ****
 1  2  3  4  5  16  17  18  19  20  21  22  23  24  25 0
 3-21G
 ****
 27  28  30  31  32  35  37  42  43  44  45  46  47 0
 3-21G
 ****
 48  49 0
 3-21G
 ****


