%nproc=1
%NoSave
%Mem=1900MB
#P OB98/GEN NMR

erre ene a

0 1
  C      -71.266      70.336     -51.084
  O      -72.359      69.715     -50.433
  P      -73.352      70.585     -49.528
  C      -71.685      70.592     -47.528
  O      -72.450      71.346     -48.443
  C      -70.661      71.474     -46.802
  O      -69.750      72.006     -47.794
  C      -71.252      72.685     -46.086
  O      -70.297      73.161     -45.136
  C      -71.382      73.681     -47.217
  O      -71.482      75.022     -46.748
  C      -70.134      73.372     -48.083
  N      -70.417      73.531     -49.520
  C      -69.493      74.256     -50.268
  O      -68.441      74.686     -49.796
  N      -69.857      74.542     -51.554
  C      -71.052      74.219     -52.127
  O      -71.483      74.737     -53.150
  C      -71.876      73.258     -51.375
  C      -71.539      72.982     -50.112
  O      -74.118      69.470     -48.672
  O      -74.298      71.451     -50.285
  H      -71.602      75.594     -47.541
  H      -74.974      69.256     -49.088
  H      -69.253      75.188     -52.050
  H      -72.759      72.859     -51.854
  H      -72.158      72.317     -49.515
  H      -69.296      74.034     -47.828
  H      -72.295      73.461     -47.785
  H      -72.211      72.494     -45.598
  H      -70.081      70.858     -46.105
  H      -71.184      69.778     -48.061
  H      -72.338      70.119     -46.786
  P      -70.850      73.844     -43.794
  C      -69.919      76.171     -44.353
  O      -71.080      75.394     -44.139
  O      -70.072      73.570     -42.551
  O      -72.349      73.280     -43.694
  H      -72.679      73.383     -42.783
  H      -70.160      76.982     -45.045
  H      -69.107      75.573     -44.776
  H      -69.595      76.602     -43.402
  H      -70.718      69.603     -51.639
  H      -70.624      70.784     -50.355
  H      -71.629      71.090     -51.751

 3  4  5  6  7  8  9  10  11  12  13  23  28  29  30  31  32 0
 6-311+G(2d,p)
 ****
 33  34 0
 6-311+G(2d,p)
 ****
 1  2  14  15  16  17  18  19  20  21  22  24  25  26  27 0
 3-21G
 ****
 35  36  37  38  39  40  41  42  43  44  45 0
 3-21G
 ****


