%nproc=1
%NoSave
%Mem=1900MB
#P OB98/GEN NMR

erre ene a

0 1
  C       93.383    -521.283     -29.792
  O       93.697    -522.381     -30.628
  P       94.673    -522.214     -31.887
  C       96.297    -524.120     -31.327
  O       96.131    -522.716     -31.457
  C       97.741    -524.481     -31.001
  O       98.600    -524.113     -32.104
  C       98.283    -523.800     -29.735
  O       99.117    -524.762     -29.059
  C       99.121    -522.659     -30.284
  O      100.094    -522.214     -29.362
  C       99.664    -523.309     -31.558
  N      100.135    -522.331     -32.523
  C      101.465    -521.936     -32.442
  O      102.169    -522.330     -31.492
  N      101.977    -521.117     -33.406
  C      101.173    -520.566     -34.277
  N      101.727    -519.810     -35.253
  C       99.709    -520.759     -34.240
  C       99.268    -521.676     -33.374
  O       94.643    -520.872     -32.535
  O       94.191    -523.353     -32.906
  H       94.008    -522.942     -33.777
  H      100.779    -521.701     -29.847
  H       99.071    -520.188     -34.891
  H       98.202    -521.896     -33.292
  H      100.500    -523.985     -31.318
  H       98.467    -521.818     -30.531
  H       97.495    -523.478     -29.054
  H       97.803    -525.574     -30.895
  H      102.738    -519.734     -35.274
  H       96.027    -524.581     -32.290
  H      101.243    -519.622     -36.131
  H       95.613    -524.517     -30.562
  P       99.111    -524.768     -27.452
  C       97.657    -526.869     -27.012
  O       97.755    -525.461     -26.960
  O       98.845    -523.222     -27.116
  O      100.371    -525.214     -26.793
  H       99.211    -523.015     -26.237
  H       96.645    -527.150     -26.713
  H       98.367    -527.325     -26.321
  H       97.821    -527.228     -28.028
  H       92.721    -521.604     -29.015
  H       92.909    -520.518     -30.371
  H       94.281    -520.897     -29.358

 3  4  5  6  7  8  9  10  11  12  13  24  27  28  29  30  32 0
 6-311+G(2d,p)
 ****
 34  35 0
 6-311+G(2d,p)
 ****
 1  2  14  15  16  17  18  19  20  21  22  23  25  26 0
 3-21G
 ****
 31  33  36  37  38  39  40  41  42  43  44  45  46 0
 3-21G
 ****


