%nproc=1
%NoSave
%Mem=1900MB
#P OB98/GEN NMR

erre ene a

0 1
  C      -30.033    -251.661    -358.435
  O      -30.638    -251.864    -357.175
  H      -30.389    -252.434    -359.121
  H      -28.947    -251.743    -358.351
  H      -30.302    -250.683    -358.842
  P      -30.390    -250.786    -356.016
  C      -32.065    -249.021    -356.862
  O      -30.698    -249.345    -356.648
  C      -32.215    -247.520    -357.089
  O      -31.602    -246.786    -356.007
  C      -31.543    -247.019    -358.363
  O      -32.306    -247.359    -359.503
  C      -31.452    -245.531    -358.063
  O      -32.711    -244.880    -358.292
  C      -31.113    -245.540    -356.553
  N      -29.682    -245.375    -356.291
  C      -29.345    -244.754    -355.093
  O      -30.177    -244.355    -354.283
  N      -28.006    -244.566    -354.876
  C      -27.008    -244.849    -355.762
  O      -25.850    -244.465    -355.620
  C      -27.416    -245.569    -356.976
  C      -28.716    -245.782    -357.190
  O      -29.088    -250.896    -355.297
  O      -31.628    -251.011    -355.024
  H      -31.333    -251.536    -354.255
  H      -32.849    -244.877    -359.258
  H      -27.753    -244.075    -354.031
  H      -26.645    -245.868    -357.675
  H      -29.043    -246.285    -358.094
  H      -31.649    -244.735    -356.036
  H      -30.712    -245.025    -358.686
  H      -30.528    -247.427    -358.438
  H      -33.286    -247.280    -357.096
  H      -32.635    -249.313    -355.973
  H      -32.437    -249.584    -357.724
  P      -31.622    -247.523    -360.938
  C      -31.918    -250.063    -360.781
  O      -31.009    -249.002    -361.032
  O      -30.673    -246.435    -361.315
  O      -32.856    -247.581    -361.958
  H      -32.724    -246.913    -362.658
  H      -31.407    -250.999    -360.870
  H      -32.717    -250.024    -361.492
  H      -32.315    -249.966    -359.792

 6  7  8  9  10  11  12  13  14  15  16  27  31  32  33  34  35 0
 6-311+G(2d,p)
 ****
 36  37 0
 6-311+G(2d,p)
 ****
 1  2  3  4  5  17  18  19  20  21  22  23  24  25 0
 3-21G
 ****
 26  28  29  30  38  39  40  41  42  43  44  45 0
 3-21G
 ****


