%nproc=1
%NoSave
%Mem=1900MB
#P OB98/GEN NMR

erre ene a

0 1
  C        5.824     182.239     129.101
  O        5.616     183.129     128.019
  P        4.566     184.324     128.227
  C        1.977     184.199     128.503
  O        3.126     183.777     127.786
  C        0.841     184.503     127.526
  O        1.171     185.645     126.710
  C        0.556     183.368     126.550
  O       -0.207     182.341     127.157
  C       -0.184     184.099     125.436
  O       -1.577     184.247     125.758
  C        0.522     185.472     125.430
  N        1.459     185.614     124.322
  C        0.959     186.232     123.178
  O       -0.207     186.618     123.083
  N        1.833     186.354     122.131
  C        3.115     185.878     122.096
  O        3.832     185.969     121.105
  C        3.577     185.210     123.323
  C        2.745     185.104     124.358
  O        4.947     185.370     127.076
  O        4.600     184.949     129.581
  H       -1.923     183.345     125.916
  H        4.813     186.281     127.402
  H        1.498     186.818     121.304
  H        4.587     184.824     123.330
  H        3.062     184.603     125.265
  H       -0.223     186.275     125.359
  H       -0.128     183.563     124.483
  H        1.501     182.972     126.151
  H       -0.061     184.746     128.104
  H        2.220     185.095     129.081
  H        1.682     183.409     129.201
  P        0.285     180.829     126.910
  C        0.811     179.471     124.739
  O        0.279     180.646     125.319
  O       -0.992     180.014     127.429
  O        1.560     180.505     127.614
  H       -1.825     180.491     127.270
  H        0.611     178.591     125.361
  H        1.887     179.587     124.604
  H        0.344     179.321     123.761
  H        6.544     181.499     128.821
  H        4.900     181.761     129.352
  H        6.184     182.785     129.948

 3  4  5  6  7  8  9  10  11  12  13  23  28  29  30  31  32 0
 6-311+G(2d,p)
 ****
 33  34 0
 6-311+G(2d,p)
 ****
 1  2  14  15  16  17  18  19  20  21  22  24  25  26 0
 3-21G
 ****
 27  35  36  37  38  39  40  41  42  43  44  45 0
 3-21G
 ****


