%nproc=1
%NoSave
%Mem=1900MB
#P OB98/GEN NMR

erre ene a

0 1
  C      402.416     104.623    -511.541
  O      403.428     105.536    -511.181
  H      401.589     105.178    -511.991
  H      402.046     104.106    -510.652
  H      402.780     103.890    -512.267
  P      404.877     104.970    -510.800
  C      406.013     106.380    -512.644
  O      405.789     105.080    -512.114
  C      407.056     106.340    -513.763
  O      408.364     106.101    -513.185
  C      406.788     105.192    -514.744
  O      407.277     105.479    -516.053
  C      407.593     104.050    -514.153
  O      407.928     103.042    -515.109
  C      408.805     104.793    -513.589
  N      412.263     101.368    -512.070
  C      411.797     101.627    -513.339
  N      412.323     100.883    -514.341
  N      410.880     102.525    -513.606
  C      410.391     103.142    -512.505
  C      410.755     102.954    -511.194
  C      411.798     101.982    -510.910
  O      412.228     101.693    -509.802
  N      410.030     103.756    -510.346
  C      409.224     104.431    -511.145
  N      409.423     104.110    -512.468
  O      404.644     103.389    -510.671
  O      405.486     105.539    -509.553
  H      408.545     102.420    -514.676
  H      405.339     102.986    -510.119
  H      412.993     100.691    -511.923
  H      408.500     105.165    -510.824
  H      409.573     104.921    -514.362
  H      406.989     103.567    -513.375
  H      412.878     100.062    -514.152
  H      405.733     104.932    -514.809
  H      411.783     100.840    -515.210
  H      407.107     107.313    -514.265
  H      406.358     107.005    -511.816
  H      405.076     106.809    -513.002
  P      406.253     105.434    -517.284
  C      406.741     107.968    -517.879
  O      405.814     106.918    -517.679
  O      404.926     104.801    -516.650
  O      406.738     104.654    -518.464
  H      404.731     103.938    -517.059
  H      406.215     108.864    -518.134
  H      407.409     107.708    -518.673
  H      407.300     108.126    -516.980

 6  7  8  9  10  11  12  13  14  15  26  29  33  34 0
 6-311+G(2d,p)
 ****
 36  38  39  40  41 0
 6-311+G(2d,p)
 ****
 1  2  3  4  5  16  17  18  19  20  21  22  23  24  25 0
 3-21G
 ****
 27  28  30  31  32  35  37  42  43  44  45  46  47 0
 3-21G
 ****
 48  49 0
 3-21G
 ****


