%nproc=1
%NoSave
%Mem=1900MB
#P OB98/GEN NMR

erre ene a

0 1
  C       88.635     350.955     377.720
  O       88.104     349.660     378.034
  P       86.633     349.467     378.657
  C       84.847     347.611     378.761
  O       86.227     347.918     378.552
  C       84.581     346.104     378.639
  O       84.347     345.734     377.264
  C       85.727     345.219     379.125
  O       85.723     345.135     380.541
  C       85.413     343.907     378.405
  O       84.400     343.175     379.112
  C       84.875     344.408     377.059
  N       86.476     342.109     372.775
  C       85.410     341.886     373.579
  N       85.054     342.537     374.704
  C       85.921     343.532     374.970
  C       87.054     343.879     374.244
  C       87.330     343.114     373.096
  N       88.422     343.334     372.292
  N       87.709     344.940     374.837
  C       86.971     345.244     375.890
  N       85.883     344.422     376.010
  O       85.609     350.408     378.106
  O       86.822     349.695     380.228
  H       84.179     342.386     378.575
  H       85.989     350.034     380.618
  H       84.757     341.073     373.272
  H       87.185     346.044     376.588
  H       84.040     343.793     376.704
  H       86.288     343.256     378.319
  H       86.682     345.610     378.764
  H       83.665     345.884     379.197
  H       84.257     348.147     378.010
  H       88.567     342.719     371.507
  H       89.087     344.051     372.549
  H       84.557     347.961     379.758
  P       87.073     345.402     381.364
  C       87.512     346.030     383.812
  O       86.713     345.276     382.919
  O       87.824     346.634     380.983
  O       87.946     344.085     381.094
  H       88.893     344.312     381.131
  H       88.458     345.506     383.986
  H       86.981     346.130     384.761
  H       87.713     347.027     383.410
  H       89.621     350.848     377.319
  H       88.673     351.550     378.609
  H       88.006     351.433     376.998

 3  4  5  6  7  8  9  10  11  12  22  25  29  30  31  32 0
 6-311+G(2d,p)
 ****
 33  36  37 0
 6-311+G(2d,p)
 ****
 1  2  13  14  15  16  17  18  19  20  21  23  24  26 0
 3-21G
 ****
 27  28  34  35  38  39  40  41  42  43  44  45  46  47  48 0
 3-21G
 ****


