%nproc=1
%NoSave
%Mem=1900MB
#P OB98/GEN NMR

erre ene a

0 1
  C      367.603    -663.964     200.411
  O      367.328    -664.623     199.192
  H      366.663    -663.569     200.813
  H      368.292    -663.133     200.247
  H      368.023    -664.659     201.144
  P      368.503    -665.458     198.485
  C      368.544    -667.638     199.872
  O      368.134    -667.010     198.663
  C      367.503    -668.673     200.331
  O      366.368    -667.950     200.915
  C      366.946    -669.550     199.190
  O      366.590    -670.813     199.776
  C      365.697    -668.760     198.807
  O      364.838    -669.487     197.956
  C      365.192    -668.390     200.203
  N      364.156    -667.365     200.240
  C      363.005    -667.569     199.482
  O      362.803    -668.569     198.775
  N      362.070    -666.577     199.539
  C      362.149    -665.433     200.281
  O      361.256    -664.589     200.312
  C      363.388    -665.262     201.044
  C      364.313    -666.220     201.004
  O      369.888    -665.088     198.882
  O      368.244    -665.218     196.921
  H      368.880    -664.549     196.583
  H      365.358    -669.812     197.190
  H      361.223    -666.714     199.001
  H      363.490    -664.362     201.637
  H      365.234    -666.138     201.578
  H      364.822    -669.282     200.715
  H      365.989    -667.869     198.242
  H      367.653    -669.708     198.378
  H      367.935    -669.280     201.124
  H      368.665    -666.867     200.640
  H      369.509    -668.133     199.708
  P      366.853    -672.224     199.054
  C      368.153    -673.487     200.909
  O      366.922    -673.365     200.180
  O      368.020    -672.220     198.122
  O      365.491    -672.546     198.264
  H      365.691    -673.131     197.510
  H      368.067    -674.279     201.624
  H      368.359    -672.568     201.417
  H      368.950    -673.705     200.229

 6  7  8  9  10  11  12  13  14  15  16  27  31  32  33  34  35 0
 6-311+G(2d,p)
 ****
 36  37 0
 6-311+G(2d,p)
 ****
 1  2  3  4  5  17  18  19  20  21  22  23  24  25 0
 3-21G
 ****
 26  28  29  30  38  39  40  41  42  43  44  45 0
 3-21G
 ****


