%nproc=1
%NoSave
%Mem=1900MB
#P OB98/GEN NMR

erre ene a

0 1
  C     -263.377     193.328     -80.517
  O     -263.796     194.466     -79.768
  P     -265.319     194.884     -79.523
  C     -265.376     197.181     -80.788
  O     -265.408     196.481     -79.551
  C     -265.007     198.668     -80.632
  O     -265.950     199.304     -79.732
  C     -263.626     198.815     -79.993
  O     -262.460     198.735     -80.787
  C     -263.719     200.089     -79.162
  O     -263.257     201.243     -79.868
  C     -265.221     200.209     -78.871
  N     -266.836     202.115     -74.407
  C     -266.569     202.780     -75.590
  N     -266.694     204.115     -75.575
  N     -266.191     202.171     -76.686
  C     -266.019     200.837     -76.540
  C     -266.231     200.074     -75.413
  C     -266.704     200.745     -74.218
  O     -266.968     200.210     -73.148
  N     -265.924     198.754     -75.634
  C     -265.508     198.717     -76.876
  N     -265.553     199.961     -77.479
  O     -266.004     194.186     -78.398
  O     -266.046     194.437     -80.894
  H     -263.360     202.012     -79.281
  H     -266.960     194.171     -80.652
  H     -267.152     202.630     -73.596
  H     -265.171     197.831     -77.395
  H     -265.590     201.217     -79.101
  H     -263.104     200.009     -78.258
  H     -266.863     204.654     -74.741
  H     -263.524     198.003     -79.262
  H     -266.291     204.620     -76.376
  H     -265.097     199.193     -81.586
  H     -266.367     197.078     -81.241
  H     -264.667     196.699     -81.470
  P     -261.497     197.461     -80.929
  C     -259.903     198.357     -79.129
  O     -260.028     197.898     -80.466
  O     -261.324     197.281     -82.509
  O     -262.008     196.207     -80.299
  H     -260.974     196.394     -82.711
  H     -258.963     198.905     -79.026
  H     -259.897     197.499     -78.447
  H     -260.734     199.025     -78.864
  H     -262.308     193.280     -80.525
  H     -263.738     193.409     -81.521
  H     -263.770     192.440     -80.067

 3  4  5  6  7  8  9  10  11  12  23  26  30  31 0
 6-311+G(2d,p)
 ****
 33  35  36  37  38 0
 6-311+G(2d,p)
 ****
 1  2  13  14  15  16  17  18  19  20  21  22  24  25 0
 3-21G
 ****
 27  28  29  32  34  39  40  41  42  43  44  45  46  47  48  49 0
 3-21G
 ****


