%nproc=1
%NoSave
%Mem=1900MB
#P OB98/GEN NMR

erre ene a

0 1
  C     -601.971     622.737     539.739
  O     -601.221     621.727     540.393
  H     -602.517     622.285     538.907
  H     -601.297     623.502     539.343
  H     -602.689     623.189     540.428
  P     -600.485     622.150     541.757
  C     -602.290     621.405     543.514
  O     -601.051     621.152     542.879
  C     -602.206     621.119     545.011
  O     -603.290     621.805     545.687
  C     -602.307     619.628     545.360
  O     -601.460     619.364     546.477
  C     -603.763     619.468     545.774
  O     -603.955     618.329     546.613
  C     -604.034     620.827     546.440
  N     -605.460     621.149     546.483
  C     -606.061     621.142     547.745
  O     -605.404     620.868     548.750
  N     -607.404     621.417     547.838
  C     -608.099     621.607     546.761
  N     -609.431     621.849     546.917
  C     -607.515     621.575     545.408
  C     -606.203     621.355     545.338
  O     -601.190     623.546     542.093
  O     -598.996     622.221     541.658
  H     -603.314     618.380     547.356
  H     -602.158     623.527     541.977
  H     -608.139     621.728     544.532
  H     -605.686     621.322     544.391
  H     -603.646     620.831     547.466
  H     -604.393     619.340     544.890
  H     -602.031     618.982     544.523
  H     -601.268     621.546     545.391
  H     -609.800     621.836     547.867
  H     -603.081     620.788     543.069
  H     -610.077     621.951     546.149
  H     -602.550     622.460     543.342
  P     -600.392     618.175     546.401
  C     -598.799     619.305     544.703
  O     -598.959     618.776     546.013
  O     -600.813     616.982     545.622
  O     -600.192     617.782     547.949
  H     -600.145     616.805     548.000
  H     -597.800     619.669     544.585
  H     -599.490     620.108     544.556
  H     -598.986     618.536     543.983

 6  7  8  9  10  11  12  13  14  15  16  26  30  31  32  33  35 0
 6-311+G(2d,p)
 ****
 37  38 0
 6-311+G(2d,p)
 ****
 1  2  3  4  5  17  18  19  20  21  22  23  24  25 0
 3-21G
 ****
 27  28  29  34  36  39  40  41  42  43  44  45  46 0
 3-21G
 ****


