%nproc=1
%NoSave
%Mem=1900MB
#P OB98/GEN NMR

erre ene a

0 1
  C     -130.996     418.743     -60.697
  O     -131.825     419.823     -61.137
  P     -132.041     420.150     -62.693
  C     -134.306     421.352     -62.573
  O     -132.922     421.484     -62.876
  C     -135.104     422.641     -62.821
  O     -134.921     423.587     -61.731
  C     -134.745     423.385     -64.114
  O     -135.951     424.021     -64.549
  C     -133.743     424.414     -63.621
  O     -133.564     425.504     -64.520
  C     -134.367     424.796     -62.284
  N     -133.124     429.048     -59.715
  C     -134.239     428.702     -60.387
  N     -134.513     427.538     -61.013
  C     -133.508     426.663     -60.862
  C     -132.312     426.869     -60.193
  C     -132.130     428.135     -59.607
  N     -130.972     428.510     -58.960
  N     -131.501     425.749     -60.274
  C     -132.197     424.890     -60.990
  N     -133.418     425.392     -61.365
  O     -132.525     418.988     -63.503
  O     -130.587     420.597     -63.207
  H     -134.416     425.969     -64.606
  H     -130.396     420.149     -64.053
  H     -135.014     429.463     -60.435
  H     -131.864     423.904     -61.286
  H     -135.195     425.506     -62.425
  H     -132.767     423.927     -63.487
  H     -134.345     422.732     -64.895
  H     -136.170     422.370     -62.820
  H     -134.406     421.061     -61.519
  H     -130.901     429.473     -58.649
  H     -130.177     427.893     -58.980
  H     -134.725     420.538     -63.179
  P     -136.716     423.560     -65.884
  C     -138.947     424.404     -64.954
  O     -138.011     424.492     -66.013
  O     -136.985     422.092     -65.977
  O     -135.778     424.063     -67.079
  H     -136.001     423.573     -67.894
  H     -139.528     423.483     -65.049
  H     -139.622     425.261     -65.001
  H     -138.441     424.412     -63.980
  H     -130.995     418.707     -59.628
  H     -129.997     418.893     -61.050
  H     -131.376     417.821     -61.084

 3  4  5  6  7  8  9  10  11  12  22  25  29  30  31  32 0
 6-311+G(2d,p)
 ****
 33  36  37 0
 6-311+G(2d,p)
 ****
 1  2  13  14  15  16  17  18  19  20  21  23  24  26 0
 3-21G
 ****
 27  28  34  35  38  39  40  41  42  43  44  45  46  47  48 0
 3-21G
 ****


