%nproc=1
%NoSave
%Mem=1900MB
#P OB98/GEN NMR

erre ene a

0 1
  C      383.986    -389.421    -328.453
  O      385.292    -389.836    -328.044
  P      385.502    -390.418    -326.562
  C      386.794    -392.574    -327.135
  O      386.855    -391.289    -326.538
  C      388.210    -393.117    -327.405
  O      388.872    -392.318    -328.430
  C      389.100    -393.080    -326.149
  O      390.026    -394.178    -326.164
  C      389.906    -391.801    -326.349
  O      391.104    -391.807    -325.576
  C      390.110    -391.827    -327.865
  N      393.750    -388.981    -330.088
  C      393.721    -390.281    -329.734
  N      392.707    -390.972    -329.160
  C      391.635    -390.194    -328.976
  C      391.519    -388.839    -329.295
  C      392.647    -388.222    -329.872
  N      392.687    -386.893    -330.203
  N      390.269    -388.362    -328.969
  C      389.659    -389.393    -328.399
  N      390.430    -390.525    -328.415
  O      384.306    -391.083    -325.959
  O      385.917    -389.108    -325.733
  H      391.723    -392.414    -326.019
  H      385.459    -389.128    -324.862
  H      394.631    -390.841    -329.920
  H      388.668    -389.368    -327.958
  H      390.911    -392.519    -328.153
  H      389.297    -390.932    -326.048
  H      388.551    -393.077    -325.203
  H      388.127    -394.144    -327.797
  H      386.239    -392.520    -328.079
  H      393.573    -386.509    -330.500
  H      391.931    -386.284    -329.917
  H      386.230    -393.253    -326.484
  P      390.113    -395.036    -324.798
  C      390.620    -397.203    -326.185
  O      391.002    -396.317    -325.154
  O      388.776    -395.302    -324.176
  O      391.071    -394.116    -323.885
  H      391.894    -393.837    -324.328
  H      391.412    -397.927    -326.358
  H      390.451    -396.651    -327.115
  H      389.702    -397.739    -325.907
  H      384.025    -389.062    -329.460
  H      383.642    -388.639    -327.809
  H      383.314    -390.251    -328.396

 3  4  5  6  7  8  9  10  11  12  22  25  29  30  31  32 0
 6-311+G(2d,p)
 ****
 33  36  37 0
 6-311+G(2d,p)
 ****
 1  2  13  14  15  16  17  18  19  20  21  23  24  26 0
 3-21G
 ****
 27  28  34  35  38  39  40  41  42  43  44  45  46  47  48 0
 3-21G
 ****


