%nproc=1
%NoSave
%Mem=1900MB
#P OB98/GEN NMR

erre ene a

0 1
  C     1093.891     548.267    -552.804
  O     1094.544     547.124    -553.345
  P     1095.811     546.537    -552.530
  C     1095.623     544.255    -553.761
  O     1096.430     545.380    -553.441
  C     1096.456     543.176    -554.474
  O     1096.858     543.684    -555.772
  C     1097.740     542.755    -553.734
  O     1097.950     541.368    -554.026
  C     1098.809     543.594    -554.388
  O     1100.113     543.061    -554.212
  C     1098.303     543.624    -555.828
  N     1102.413     545.627    -557.989
  C     1102.306     544.481    -557.236
  N     1103.413     543.747    -557.086
  N     1101.171     544.100    -556.669
  C     1100.139     544.931    -556.937
  C     1100.150     546.108    -557.644
  C     1101.376     546.505    -558.286
  O     1101.527     547.465    -559.040
  N     1098.905     546.728    -557.612
  C     1098.151     545.872    -556.956
  N     1098.840     544.757    -556.563
  O     1095.127     545.760    -551.319
  O     1096.816     547.570    -552.094
  H     1100.751     543.675    -554.606
  H     1095.069     546.337    -550.524
  H     1103.298     545.863    -558.420
  H     1097.096     546.018    -556.738
  H     1098.595     542.706    -556.389
  H     1098.797     544.608    -553.957
  H     1104.297     543.962    -557.498
  H     1097.672     542.909    -552.643
  H     1103.343     542.882    -556.533
  H     1095.806     542.305    -554.644
  H     1094.822     544.569    -554.446
  H     1095.166     543.848    -552.845
  P     1098.331     540.391    -552.819
  C     1097.853     538.078    -553.858
  O     1098.829     539.013    -553.438
  O     1096.922     540.026    -552.175
  O     1099.239     541.012    -551.788
  H     1097.017     539.895    -551.217
  H     1098.287     537.399    -554.597
  H     1096.995     538.558    -554.304
  H     1097.522     537.485    -552.990
  H     1093.077     548.547    -553.439
  H     1094.587     549.077    -552.738
  H     1093.519     548.036    -551.828

 3  4  5  6  7  8  9  10  11  12  23  26  30  31 0
 6-311+G(2d,p)
 ****
 33  35  36  37  38 0
 6-311+G(2d,p)
 ****
 1  2  13  14  15  16  17  18  19  20  21  22  24  25 0
 3-21G
 ****
 27  28  29  32  34  39  40  41  42  43  44  45  46  47  48  49 0
 3-21G
 ****


