%nproc=1
%NoSave
%Mem=1900MB
#P OB98/GEN NMR

erre ene a

0 1
  C      -31.812      64.479      83.207
  O      -32.357      63.594      82.224
  P      -33.938      63.350      82.089
  C      -34.066      62.411      79.702
  O      -34.236      62.127      81.087
  C      -32.607      62.308      79.239
  O      -32.002      61.067      79.698
  C      -32.406      62.358      77.717
  O      -31.132      62.976      77.506
  C      -32.350      60.884      77.354
  O      -31.756      60.632      76.089
  C      -31.559      60.334      78.536
  N      -29.576      55.685      77.712
  C      -29.052      56.922      77.574
  N      -29.628      58.110      77.849
  C      -30.864      57.939      78.352
  C      -31.526      56.740      78.559
  C      -30.833      55.569      78.202
  N      -31.379      54.309      78.296
  N      -32.795      56.962      79.061
  C      -32.894      58.274      79.145
  N      -31.751      58.910      78.731
  O      -34.725      64.585      81.788
  O      -34.369      62.766      83.518
  H      -30.807      60.846      76.149
  H      -35.179      63.220      83.818
  H      -28.038      56.965      77.185
  H      -33.771      58.815      79.476
  H      -30.484      60.517      78.418
  H      -33.370      60.480      77.325
  H      -33.196      62.898      77.189
  H      -32.051      63.121      79.720
  H      -34.436      63.425      79.509
  H      -30.840      53.541      77.928
  H      -32.354      54.212      78.536
  H      -34.686      61.715      79.123
  P      -30.993      64.372      76.735
  C      -29.160      65.810      77.793
  O      -29.456      64.803      76.842
  O      -31.968      65.422      77.154
  O      -31.164      63.996      75.185
  H      -31.392      64.798      74.681
  H      -29.467      66.786      77.405
  H      -28.083      65.821      77.979
  H      -29.679      65.618      78.739
  H      -30.745      64.493      83.122
  H      -32.088      64.140      84.184
  H      -32.195      65.466      83.050

 3  4  5  6  7  8  9  10  11  12  22  25  29  30  31  32 0
 6-311+G(2d,p)
 ****
 33  36  37 0
 6-311+G(2d,p)
 ****
 1  2  13  14  15  16  17  18  19  20  21  23  24  26 0
 3-21G
 ****
 27  28  34  35  38  39  40  41  42  43  44  45  46  47  48 0
 3-21G
 ****


