%nproc=1
%NoSave
%Mem=1900MB
#P OB98/GEN NMR

erre ene a

0 1
  C     1226.415    2129.047    -894.770
  O     1226.209    2127.897    -893.970
  H     1225.917    2129.908    -894.330
  H     1227.494    2129.242    -894.810
  H     1226.049    2128.865    -895.790
  P     1224.689    2127.414    -893.790
  C     1225.851    2125.162    -893.210
  O     1224.748    2126.032    -892.960
  C     1225.451    2123.745    -892.820
  O     1224.252    2123.352    -893.530
  C     1226.502    2122.676    -893.160
  O     1227.534    2122.618    -892.190
  C     1225.650    2121.417    -893.150
  O     1225.395    2121.011    -891.800
  C     1224.360    2121.917    -893.820
  N     1222.964    2118.753    -897.580
  C     1222.874    2118.640    -896.250
  N     1223.264    2119.521    -895.290
  C     1223.803    2120.615    -895.880
  C     1223.993    2120.859    -897.240
  C     1223.519    2119.853    -898.100
  N     1223.632    2119.947    -899.490
  N     1224.630    2122.061    -897.440
  C     1224.799    2122.553    -896.230
  N     1224.339    2121.709    -895.250
  O     1224.256    2126.926    -895.250
  O     1223.744    2128.421    -893.230
  H     1224.855    2120.191    -891.830
  H     1223.287    2126.921    -895.340
  H     1222.421    2117.718    -895.860
  H     1225.259    2123.516    -896.020
  H     1223.465    2121.434    -893.390
  H     1226.149    2120.557    -893.650
  H     1226.920    2122.849    -894.170
  H     1225.220    2123.713    -891.740
  H     1226.721    2125.475    -892.570
  H     1223.414    2119.104    -900.000
  H     1224.167    2120.701    -899.870
  H     1226.127    2125.214    -894.260
  P     1228.923    2121.937    -892.610
  C     1230.087    2123.009    -890.520
  O     1229.791    2121.837    -891.260
  O     1229.669    2123.119    -893.430
  O     1228.779    2120.672    -893.420
  H     1230.296    2122.749    -894.080
  H     1230.669    2122.750    -889.660
  H     1229.175    2123.473    -890.207
  H     1230.641    2123.688    -891.134

 6  7  8  9  10  11  12  13  14  15  25  28  32  33  34  35 0
 6-311+G(2d,p)
 ****
 36  39  40 0
 6-311+G(2d,p)
 ****
 1  2  3  4  5  16  17  18  19  20  21  22  23  24 0
 3-21G
 ****
 26  27  29  30  31  37  38  41  42  43  44  45  46  47 0
 3-21G
 ****
 48 0
 3-21G
 ****


