%nproc=1
%NoSave
%Mem=1900MB
#P OB98/GEN NMR

erre ene a

0 1
  C     -631.595    -318.767     403.057
  O     -632.720    -318.245     402.331
  P     -633.223    -316.724     402.440
  C     -635.319    -317.244     403.866
  O     -634.064    -316.575     403.798
  C     -635.822    -317.326     405.314
  O     -636.063    -315.991     405.827
  C     -637.149    -318.046     405.499
  O     -637.028    -319.451     405.364
  C     -637.540    -317.587     406.903
  O     -636.911    -318.394     407.911
  C     -636.966    -316.154     406.947
  N     -638.007    -315.136     406.930
  C     -638.169    -314.388     408.111
  O     -637.515    -314.671     409.122
  N     -639.087    -313.367     408.114
  C     -639.841    -313.168     407.072
  N     -640.719    -312.129     407.134
  C     -639.787    -314.013     405.866
  C     -638.856    -314.963     405.865
  O     -633.940    -316.229     401.225
  O     -631.890    -315.863     402.706
  H     -632.025    -314.951     402.389
  H     -637.395    -319.237     407.948
  H     -640.469    -313.840     405.039
  H     -638.740    -315.627     405.014
  H     -636.352    -316.023     407.846
  H     -638.619    -317.640     407.068
  H     -637.879    -317.663     404.776
  H     -635.032    -317.800     405.917
  H     -640.721    -311.559     407.970
  H     -635.179    -318.263     403.478
  H     -641.323    -311.875     406.364
  H     -636.045    -316.720     403.226
  P     -637.740    -320.118     404.084
  C     -639.440    -321.393     405.595
  O     -639.241    -320.488     404.520
  O     -637.018    -321.551     403.968
  O     -637.616    -319.340     402.824
  H     -636.886    -321.768     403.020
  H     -640.406    -321.171     406.060
  H     -638.647    -321.300     406.342
  H     -639.462    -322.420     405.211
  H     -631.463    -319.801     402.815
  H     -631.771    -318.666     404.108
  H     -630.714    -318.222     402.789

 3  4  5  6  7  8  9  10  11  12  13  24  27  28  29  30  32 0
 6-311+G(2d,p)
 ****
 34  35 0
 6-311+G(2d,p)
 ****
 1  2  14  15  16  17  18  19  20  21  22  23  25  26 0
 3-21G
 ****
 31  33  36  37  38  39  40  41  42  43  44  45  46 0
 3-21G
 ****


