%nproc=1
%NoSave
%Mem=1900MB
#P OB98/GEN NMR

erre ene a

0 1
  C      154.763      59.157     115.241
  O      153.452      59.645     115.033
  H      155.150      58.778     114.292
  H      154.749      58.340     115.968
  H      155.415      59.960     115.595
  P      152.707      60.270     116.309
  C      151.923      57.923     117.111
  O      152.650      59.108     117.413
  C      151.994      56.961     118.293
  O      153.370      56.584     118.534
  C      151.502      57.559     119.604
  O      150.090      57.584     119.691
  C      152.156      56.628     120.613
  O      151.386      55.434     120.801
  C      153.496      56.298     119.946
  N      156.878      56.488     123.764
  C      155.967      55.555     123.412
  N      155.109      55.574     122.370
  C      155.279      56.688     121.637
  C      156.169      57.722     121.869
  C      157.003      57.593     122.993
  N      157.913      58.552     123.366
  N      156.021      58.713     120.920
  C      155.065      58.282     120.123
  N      154.590      57.062     120.514
  O      151.191      60.400     115.814
  O      153.251      61.574     116.785
  H      151.385      54.971     119.941
  H      151.013      61.322     115.549
  H      155.911      54.685     124.058
  H      154.681      58.815     119.262
  H      153.757      55.237     120.041
  H      152.256      57.114     121.583
  H      151.914      58.567     119.737
  H      151.430      56.054     118.040
  H      152.361      57.445     116.230
  H      150.884      58.191     116.893
  H      158.429      58.426     124.221
  H      157.933      59.431     122.865
  P      149.425      58.610     120.728
  C      148.357      56.716     122.168
  O      149.239      57.830     122.115
  O      147.930      58.787     120.186
  O      150.132      59.918     120.845
  H      147.629      59.704     120.336
  H      148.349      56.314     123.160
  H      148.689      55.965     121.481
  H      147.369      57.030     121.903

 6  7  8  9  10  11  12  13  14  15  25  28  32  33  34  35 0
 6-311+G(2d,p)
 ****
 36  37  40 0
 6-311+G(2d,p)
 ****
 1  2  3  4  5  16  17  18  19  20  21  22  23  24 0
 3-21G
 ****
 26  27  29  30  31  38  39 41  42  43  44  45  46  47  48 0
 3-21G
 ****


