%nproc=1
%NoSave
%Mem=1900MB
#P OB98/GEN NMR

erre ene a

0 1
  C      729.725     335.111     396.887
  O      730.280     336.320     397.366
  H      729.329     334.541     397.731
  H      730.507     334.523     396.396
  H      728.909     335.309     396.179
  P      730.556     337.480     396.297
  C      728.465     338.691     397.257
  O      729.165     338.262     396.092
  C      727.313     339.618     396.868
  O      727.861     340.772     396.161
  C      726.254     338.966     395.954
  O      724.958     339.466     396.324
  C      726.613     339.513     394.589
  O      725.508     339.494     393.689
  C      727.083     340.918     394.958
  N      726.625     343.208     390.513
  C      725.672     342.882     391.458
  N      724.385     343.164     391.146
  N      725.952     342.329     392.603
  C      727.284     342.130     392.798
  C      728.327     342.400     391.934
  C      727.995     342.989     390.661
  O      728.796     343.280     389.770
  N      729.525     341.984     392.474
  C      729.194     341.453     393.637
  N      727.851     341.516     393.880
  O      730.734     336.662     394.931
  O      731.735     338.343     396.582
  H      725.303     338.560     393.472
  H      731.681     336.495     394.765
  H      726.350     343.611     389.626
  H      729.889     340.995     394.332
  H      726.247     341.600     395.166
  H      727.435     338.925     394.146
  H      724.082     343.603     390.295
  H      726.254     337.870     395.994
  H      723.677     342.963     391.860
  H      726.849     339.997     397.785
  H      729.162     339.231     397.905
  H      728.092     337.813     397.788
  P      723.883     338.423     396.885
  C      722.662     339.849     398.696
  O      723.577     338.798     398.423
  O      724.718     337.061     397.010
  O      722.679     338.259     396.019
  H      724.138     336.298     396.818
  H      722.568     339.974     399.754
  H      721.707     339.608     398.279
  H      723.022     340.758     398.260

 6  7  8  9  10  11  12  13  14  15  26  29  33  34 0
 6-311+G(2d,p)
 ****
 36  38  39  40  41 0
 6-311+G(2d,p)
 ****
 1  2  3  4  5  16  17  18  19  20  21  22  23  24  25 0
 3-21G
 ****
 27  28  30  31  32  35  37  42  43  44  45  46  47 0
 3-21G
 ****
 48  49 0
 3-21G
 ****


