%nproc=1
%NoSave
%Mem=1900MB
#P OB98/GEN NMR

erre ene a

0 1
  C      426.225     -60.583     -48.127
  O      425.240     -59.819     -47.420
  P      425.045     -58.246     -47.665
  C      423.877     -56.718     -49.381
  O      423.980     -58.038     -48.847
  C      423.625     -56.738     -50.895
  O      424.655     -57.480     -51.576
  C      422.303     -57.377     -51.306
  O      421.229     -56.474     -51.106
  C      422.585     -57.730     -52.762
  O      422.413     -56.575     -53.603
  C      424.059     -58.143     -52.709
  N      422.917     -62.651     -54.834
  C      422.608     -61.385     -55.184
  N      422.943     -60.234     -54.563
  C      423.706     -60.484     -53.484
  C      424.100     -61.725     -53.002
  C      423.670     -62.848     -53.727
  N      423.974     -64.141     -53.358
  N      424.851     -61.586     -51.854
  C      424.925     -60.283     -51.658
  N      424.250     -59.576     -52.615
  O      426.322     -57.492     -47.851
  O      424.263     -57.725     -46.368
  H      422.979     -55.866     -53.248
  H      424.479     -56.789     -46.208
  H      422.004     -61.282     -56.085
  H      425.457     -59.805     -50.841
  H      424.607     -57.795     -53.594
  H      421.918     -58.513     -53.142
  H      422.136     -58.293     -50.733
  H      423.680     -55.701     -51.255
  H      424.817     -56.189     -49.176
  H      423.600     -64.894     -53.911
  H      424.495     -64.297     -52.508
  H      423.059     -56.201     -48.873
  P      419.806     -57.016     -50.607
  C      419.147     -59.058     -49.199
  O      420.080     -58.007     -49.379
  O      418.912     -57.557     -51.671
  O      419.149     -55.743     -49.887
  H      418.176     -55.795     -49.966
  H      418.261     -58.672     -48.686
  H      419.606     -59.833     -48.578
  H      418.862     -59.495     -50.157
  H      426.180     -61.604     -47.809
  H      427.198     -60.188     -47.922
  H      426.032     -60.528     -49.178

 3  4  5  6  7  8  9  10  11  12  22  25  29  30  31  32 0
 6-311+G(2d,p)
 ****
 33  36  37 0
 6-311+G(2d,p)
 ****
 1  2  13  14  15  16  17  18  19  20  21  23  24  26 0
 3-21G
 ****
 27  28  34  35  38  39  40  41  42  43  44  45  46  47  48 0
 3-21G
 ****


