%nproc=1
%NoSave
%Mem=1900MB
#P OB98/GEN NMR

erre ene a

0 1
  C     -116.766      20.887     194.539
  O     -116.142      20.284     195.649
  H     -116.107      21.671     194.153
  H     -117.710      21.351     194.836
  H     -116.940      20.155     193.747
  P     -116.909      19.121     196.446
  C     -116.195      16.789     197.248
  O     -115.756      18.101     196.920
  C     -115.008      15.851     197.471
  O     -114.470      15.437     196.185
  C     -113.859      16.488     198.269
  O     -113.425      15.587     199.290
  C     -112.757      16.656     197.235
  O     -111.455      16.704     197.811
  C     -113.037      15.462     196.317
  N     -112.363      15.589     195.032
  C     -111.036      15.151     194.985
  O     -110.502      14.682     195.992
  N     -110.331      15.301     193.821
  C     -110.884      15.885     192.804
  N     -110.120      16.030     191.689
  C     -112.273      16.388     192.819
  C     -112.950      16.206     193.952
  O     -118.038      18.494     195.700
  O     -117.365      19.798     197.822
  H     -111.279      15.845     198.254
  H     -118.119      19.286     198.196
  H     -112.687      16.872     191.946
  H     -113.975      16.544     194.057
  H     -112.720      14.522     196.787
  H     -112.917      17.594     196.686
  H     -114.130      17.438     198.725
  H     -115.373      14.939     197.959
  H     -109.171      15.676     191.726
  H     -116.829      16.418     196.434
  H     -110.433      16.487     190.848
  H     -116.786      16.842     198.168
  P     -113.584      16.100     200.803
  C     -114.547      14.859     202.869
  O     -113.666      14.812     201.756
  O     -115.068      16.700     200.833
  O     -112.570      17.122     201.194
  H     -115.030      17.671     200.911
  H     -114.493      13.935     203.406
  H     -115.548      15.013     202.525
  H     -114.264      15.664     203.515

 6  7  8  9  10  11  12  13  14  15  16  26  30  31  32  33  35 0
 6-311+G(2d,p)
 ****
 37  38 0
 6-311+G(2d,p)
 ****
 1  2  3  4  5  17  18  19  20  21  22  23  24  25 0
 3-21G
 ****
 27  28  29  34  36  39  40  41  42  43  44  45  46 0
 3-21G
 ****


