%nproc=1
%NoSave
%Mem=1900MB
#P OB98/GEN NMR

erre ene a

0 1
  C       97.632     -28.595     -27.261
  O       96.678     -28.789     -26.215
  P       95.129     -28.742     -26.632
  C       94.816     -26.171     -26.553
  O       94.837     -27.341     -27.357
  C       93.513     -25.379     -26.730
  O       93.332     -24.982     -28.114
  C       92.265     -26.159     -26.315
  O       91.333     -25.219     -25.774
  C       91.726     -26.671     -27.636
  O       90.345     -27.007     -27.536
  C       92.052     -25.483     -28.555
  N       92.070     -25.839     -29.971
  C       90.894     -26.364     -30.509
  O       89.920     -26.577     -29.784
  N       90.857     -26.678     -31.845
  C       91.922     -26.531     -32.568
  N       91.824     -26.862     -33.885
  C       93.203     -26.035     -32.031
  C       93.202     -25.709     -30.740
  O       94.372     -28.610     -25.228
  O       94.676     -29.952     -27.384
  H       90.274     -27.880     -27.094
  H       93.658     -29.272     -25.171
  H       94.071     -25.948     -32.668
  H       94.092     -25.335     -30.256
  H       91.316     -24.680     -28.420
  H       92.281     -27.564     -27.951
  H       92.465     -26.946     -25.582
  H       93.590     -24.462     -26.134
  H       90.926     -27.191     -34.218
  H       95.660     -25.528     -26.812
  H       92.588     -26.788     -34.538
  H       94.962     -26.456     -25.506
  P       91.388     -24.912     -24.202
  C       89.031     -25.856     -23.819
  O       90.409     -25.997     -23.539
  O       90.497     -23.581     -24.104
  O       92.720     -24.724     -23.560
  H       90.510     -23.244     -23.189
  H       88.501     -26.720     -23.413
  H       88.862     -25.814     -24.898
  H       88.642     -24.951     -23.341
  H       98.621     -28.649     -26.856
  H       97.481     -27.634     -27.708
  H       97.508     -29.357     -28.002

 3  4  5  6  7  8  9  10  11  12  13  21  23  27  28  29  30  32 0
 6-311+G(2d,p)
 ****
 34  35 0
 6-311+G(2d,p)
 ****
 1  2  14  15  16  17  18  19  20  22  24  25  26 0
 3-21G
 ****
 31  33  36  37  38  39  40  41  42  43  44  45  46 0
 3-21G
 ****


