%nproc=1
%NoSave
%Mem=1900MB
#P OB98/GEN NMR

erre ene a

0 1
  C      436.974     -56.354     -50.430
  O      438.045     -57.172     -50.009
  H      436.965     -56.324     -51.522
  H      437.114     -55.339     -50.052
  H      436.015     -56.751     -50.085
  P      438.118     -57.627     -48.476
  C      436.163     -59.145     -47.749
  O      437.426     -59.074     -48.398
  C      435.617     -60.575     -47.779
  O      435.295     -60.925     -49.156
  C      436.600     -61.634     -47.254
  O      435.823     -62.687     -46.668
  C      437.252     -62.111     -48.537
  O      437.901     -63.351     -48.360
  C      436.050     -62.106     -49.487
  N      436.452     -62.132     -50.895
  C      436.326     -63.347     -51.555
  O      435.934     -64.377     -51.005
  N      436.708     -63.360     -52.868
  C      437.253     -62.309     -53.548
  O      437.610     -62.387     -54.719
  C      437.405     -61.059     -52.787
  C      436.998     -61.027     -51.514
  O      437.608     -56.637     -47.482
  O      439.665     -57.969     -48.237
  H      437.298     -63.992     -47.926
  H      439.907     -57.793     -47.308
  H      436.616     -64.232     -53.364
  H      437.842     -60.210     -53.294
  H      437.093     -60.121     -50.925
  H      435.410     -62.978     -49.304
  H      438.008     -61.393     -48.877
  H      437.314     -61.235     -46.532
  H      434.673     -60.601     -47.218
  H      435.477     -58.471     -48.268
  H      436.270     -58.811     -46.710
  P      435.877     -63.013     -45.098
  C      435.654     -61.198     -43.282
  O      434.992     -61.926     -44.316
  O      437.259     -63.183     -44.555
  O      435.033     -64.364     -44.933
  H      435.358     -64.863     -44.161
  H      434.968     -60.508     -42.836
  H      436.481     -60.661     -43.697
  H      436.009     -61.879     -42.537

 6  7  8  9  10  11  12  13  14  15  16  26  31  32  33  34  35 0
 6-311+G(2d,p)
 ****
 36  37 0
 6-311+G(2d,p)
 ****
 1  2  3  4  5  17  18  19  20  21  22  23  24  25 0
 3-21G
 ****
 27  28  29  30  38  39  40  41  42  43  44  45 0
 3-21G
 ****


