%nproc=1
%NoSave
%Mem=1900MB
#P OB98/GEN NMR

erre ene a

0 1
  C      -10.883     -63.415    -222.619
  O      -11.327     -63.027    -221.338
  H      -10.328     -64.352    -222.531
  H      -10.216     -62.653    -223.030
  H      -11.732     -63.569    -223.292
  P      -12.301     -61.756    -221.246
  C      -14.087     -63.574    -220.750
  O      -13.802     -62.319    -221.350
  C      -15.343     -63.477    -219.883
  O      -15.082     -62.571    -218.780
  C      -16.571     -62.958    -220.636
  O      -17.724     -63.665    -220.173
  C      -16.665     -61.504    -220.212
  O      -17.991     -60.985    -220.317
  C      -16.109     -61.561    -218.783
  N      -15.594     -60.263    -218.357
  C      -16.154     -59.715    -217.199
  O      -17.044     -60.319    -216.596
  N      -15.739     -58.477    -216.784
  C      -14.902     -57.803    -217.509
  N      -14.552     -56.567    -217.060
  C      -14.336     -58.313    -218.774
  C      -14.715     -59.540    -219.129
  O      -12.089     -61.024    -222.652
  O      -12.060     -60.847    -220.089
  H      -17.975     -60.044    -220.035
  H      -12.195     -60.057    -222.567
  H      -13.662     -57.704    -219.357
  H      -14.359     -59.994    -220.046
  H      -16.888     -61.880    -218.078
  H      -16.014     -60.893    -220.848
  H      -16.488     -63.067    -221.721
  H      -15.540     -64.462    -219.446
  H      -14.975     -56.246    -216.198
  H      -13.242     -63.866    -220.118
  H      -13.945     -55.939    -217.565
  H      -14.221     -64.329    -221.531
  P      -17.858     -65.198    -220.622
  C      -17.469     -66.173    -218.246
  O      -17.019     -66.096    -219.592
  O      -17.001     -65.265    -221.971
  O      -19.269     -65.637    -220.842
  H      -17.594     -65.361    -222.738
  H      -16.811     -66.804    -217.686
  H      -18.459     -66.579    -218.223
  H      -17.476     -65.193    -217.816

 6  7  8  9  10  11  12  13  14  15  16  26  30  31  32  33  35 0
 6-311+G(2d,p)
 ****
 37  38 0
 6-311+G(2d,p)
 ****
 1  2  3  4  5  17  18  19  20  21  22  23  24  25 0
 3-21G
 ****
 27  28  29  34  36  39  40  41  42  43  44  45  46 0
 3-21G
 ****


