%nproc=1
%NoSave
%Mem=1900MB
#P OB98/GEN NMR

erre ene a

0 1
  C      693.768    -749.365    -172.829
  O      693.040    -748.804    -171.752
  H      694.203    -748.554    -173.419
  H      693.081    -749.927    -173.466
  H      694.566    -750.018    -172.467
  P      692.649    -749.782    -170.547
  C      692.341    -749.378    -167.994
  O      692.232    -748.845    -169.307
  C      692.551    -748.257    -166.978
  O      693.771    -747.533    -167.333
  C      691.405    -747.239    -166.921
  O      691.221    -746.823    -165.560
  C      691.953    -746.066    -167.708
  O      691.318    -744.839    -167.363
  C      693.424    -746.132    -167.327
  N      697.307    -742.958    -167.558
  C      696.818    -743.702    -166.508
  N      697.424    -743.545    -165.309
  N      695.823    -744.549    -166.618
  C      695.325    -744.627    -167.876
  C      695.709    -743.934    -168.998
  C      696.808    -742.993    -168.859
  O      697.261    -742.282    -169.754
  N      694.910    -744.253    -170.071
  C      694.031    -745.113    -169.588
  N      694.242    -745.364    -168.259
  O      694.069    -750.382    -170.101
  O      691.675    -750.860    -170.888
  H      690.372    -744.910    -167.591
  H      694.221    -751.235    -170.547
  H      698.061    -742.307    -167.415
  H      693.222    -745.561    -170.144
  H      693.622    -745.730    -166.325
  H      691.812    -746.234    -168.775
  H      698.215    -742.940    -165.146
  H      690.456    -747.611    -167.319
  H      697.106    -744.123    -164.539
  H      692.719    -748.707    -165.992
  H      693.201    -750.066    -167.956
  H      691.432    -749.944    -167.758
  P      689.783    -747.027    -164.887
  C      688.859    -747.176    -162.449
  O      689.899    -746.725    -163.319
  O      689.575    -748.614    -164.946
  O      688.676    -746.315    -165.592
  H      688.638    -748.822    -165.084
  H      689.089    -746.895    -161.443
  H      688.778    -748.241    -162.512
  H      687.931    -746.730    -162.741

 6  7  8  9  10  11  12  13  14  15  26  29  33  34 0
 6-311+G(2d,p)
 ****
 36  38  39  40  41 0
 6-311+G(2d,p)
 ****
 1  2  3  4  5  16  17  18  19  20  21  22  23  24  25 0
 3-21G
 ****
 27  28  30  31  32  35  37  42  43  44  45  46  47 0
 3-21G
 ****
 48  49 0
 3-21G
 ****


