%nproc=1
%NoSave
%Mem=1900MB
#P OB98/GEN NMR

erre ene a

0 1
  C       65.595     211.628     154.306
  O       65.843     211.411     152.907
  P       65.930     209.905     152.352
  C       68.489     209.497     152.717
  O       67.157     209.163     153.074
  C       69.427     208.323     153.018
  O       69.713     208.251     154.430
  C       68.853     206.957     152.659
  O       68.905     206.709     151.265
  C       69.752     206.032     153.473
  O       70.988     205.775     152.784
  C       70.003     206.870     154.743
  N       69.226     206.407     155.886
  C       69.942     205.808     156.919
  O       71.153     205.613     156.873
  N       69.205     205.408     158.004
  C       67.846     205.483     158.122
  O       67.241     205.087     159.110
  C       67.135     206.048     156.966
  C       67.849     206.473     155.918
  O       66.507     210.129     150.872
  O       64.641     209.152     152.309
  H       71.294     206.632     152.429
  H       66.206     209.404     150.293
  H       69.708     205.000     158.773
  H       66.056     206.105     157.008
  H       67.337     206.894     155.055
  H       71.068     206.841     155.011
  H       69.285     205.061     153.670
  H       67.825     206.875     153.032
  H       70.373     208.491     152.485
  H       68.811     210.366     153.295
  H       68.519     209.750     151.651
  P       67.511     206.777     150.467
  C       66.714     204.329     150.920
  O       66.562     205.706     151.186
  O       67.924     206.101     149.074
  O       66.975     208.162     150.351
  H       68.596     205.408     149.191
  H       67.759     204.068     150.725
  H       66.104     204.059     150.050
  H       66.364     203.760     151.788
  H       65.568     212.679     154.505
  H       66.376     211.176     154.881
  H       64.656     211.190     154.574

 3  4  5  6  7  8  9  10  11  12  13  23  28  29  30  31  32 0
 6-311+G(2d,p)
 ****
 33  34 0
 6-311+G(2d,p)
 ****
 1  2  14  15  16  17  18  19  20  21  22  24  25  26 0
 3-21G
 ****
 27  35  36  37  38  39  40  41  42  43  44  45 0
 3-21G
 ****


