%nproc=1
%NoSave
%Mem=1900MB
#P OB98/GEN NMR

erre ene a

0 1
  C      231.191     267.734    -438.371
  O      231.143     267.157    -439.677
  P      232.288     267.623    -440.700
  C      233.166     265.195    -440.980
  O      232.674     266.364    -441.621
  C      232.338     263.971    -441.377
  O      230.941     264.125    -441.051
  C      232.384     263.667    -442.869
  O      233.584     262.990    -443.185
  C      231.142     262.801    -443.048
  O      231.416     261.422    -442.718
  C      230.157     263.410    -442.035
  N      225.420     263.764    -443.814
  C      226.149     262.642    -443.448
  N      225.513     261.456    -443.541
  N      227.384     262.693    -443.021
  C      227.887     263.946    -442.976
  C      227.260     265.131    -443.284
  C      225.894     265.065    -443.763
  O      225.204     266.024    -444.079
  N      228.075     266.212    -443.053
  C      229.237     265.668    -442.726
  N      229.159     264.300    -442.600
  O      233.568     267.820    -439.757
  O      231.954     268.875    -441.440
  H      231.574     261.348    -441.761
  H      233.782     268.769    -439.681
  H      224.475     263.666    -444.146
  H      230.145     266.216    -442.545
  H      229.598     262.627    -441.502
  H      230.794     262.803    -444.079
  H      224.566     261.345    -443.861
  H      232.284     264.594    -443.442
  H      226.029     260.625    -443.272
  H      232.724     263.117    -440.811
  H      233.140     265.322    -439.894
  H      234.217     265.060    -441.257
  P      234.430     263.512    -444.448
  C      236.813     263.374    -443.425
  O      235.887     262.854    -444.357
  O      234.681     265.058    -444.104
  O      233.736     263.363    -445.760
  H      234.518     265.602    -444.897
  H      237.484     262.571    -443.112
  H      236.304     263.777    -442.543
  H      237.403     264.160    -443.897
  H      230.384     267.351    -437.782
  H      231.103     268.798    -438.448
  H      232.122     267.486    -437.905

 3  4  5  6  7  8  9  10  11  12  23  26  30  31 0
 6-311+G(2d,p)
 ****
 33  35  36  37  38 0
 6-311+G(2d,p)
 ****
 1  2  13  14  15  16  17  18  19  20  21  22  24  25 0
 3-21G
 ****
 27  28  29  32  34  39  40  41  42  43  44  45  46  47  48  49 0
 3-21G
 ****


