%nproc=1
%NoSave
%Mem=1900MB
#P OB98/GEN NMR

erre ene a

0 1
  C      -13.210     -35.065      -6.245
  O      -12.853     -34.061      -5.318
  H      -12.567     -34.974      -7.125
  H      -14.249     -34.932      -6.555
  H      -13.074     -36.059      -5.811
  P      -13.536     -34.144      -3.869
  C      -13.081     -31.593      -3.715
  O      -14.001     -32.653      -3.498
  C      -13.745     -30.251      -3.421
  O      -14.775     -29.975      -4.396
  C      -14.420     -30.171      -2.056
  O      -13.490     -29.871      -1.024
  C      -15.377     -29.014      -2.286
  O      -14.656     -27.767      -2.231
  C      -15.861     -29.285      -3.716
  N      -20.928     -29.227      -3.668
  C      -20.028     -28.186      -3.550
  N      -20.552     -26.952      -3.386
  N      -18.729     -28.337      -3.584
  C      -18.347     -29.627      -3.742
  C      -19.143     -30.743      -3.873
  C      -20.576     -30.559      -3.841
  O      -21.419     -31.443      -3.965
  N      -18.394     -31.878      -4.025
  C      -17.147     -31.456      -3.967
  N      -17.064     -30.097      -3.789
  O      -12.294     -34.396      -2.887
  O      -14.575     -35.201      -3.710
  H      -14.115     -27.791      -1.420
  H      -12.580     -34.987      -2.164
  H      -21.918     -29.056      -3.625
  H      -16.274     -32.087      -4.051
  H      -16.062     -28.362      -4.270
  H      -16.164     -28.962      -1.532
  H      -21.540     -26.772      -3.302
  H      -14.992     -31.080      -1.836
  H      -19.913     -26.170      -3.331
  H      -12.982     -29.469      -3.521
  H      -12.750     -31.612      -4.758
  H      -12.214     -31.735      -3.063
  P      -13.614     -30.694       0.351
  C      -11.613     -29.306       1.255
  O      -12.943     -29.762       1.472
  O      -12.546     -31.871       0.163
  O      -14.976     -31.213       0.655
  H      -12.775     -32.625       0.740
  H      -11.304     -28.700       2.081
  H      -11.577     -28.728       0.355
  H      -10.958     -30.147       1.165

 6  7  8  9  10  11  12  13  14  15  26  29  33  34 0
 6-311+G(2d,p)
 ****
 36  38  39  40  41 0
 6-311+G(2d,p)
 ****
 1  2  3  4  5  16  17  18  19  20  21  22  23  24  25 0
 3-21G
 ****
 27  28  30  31  32  35  37  42  43  44  45  46  47 0
 3-21G
 ****
 48  49 0
 3-21G
 ****


