%nproc=1
%NoSave
%Mem=1900MB
#P OB98/GEN NMR

erre ene a

0 1
  C      -13.147      26.773      40.700
  O      -12.064      27.406      40.037
  P      -10.577      27.008      40.491
  C       -9.410      27.301      38.200
  O       -9.576      27.804      39.520
  C       -9.514      28.423      37.174
  O      -10.891      28.888      37.123
  C       -8.627      29.642      37.477
  O       -8.000      30.083      36.265
  C       -9.623      30.710      37.895
  O       -9.124      32.023      37.667
  C      -10.823      30.325      37.031
  N      -14.102      34.033      36.034
  C      -13.059      33.550      35.271
  N      -12.823      34.186      34.102
  N      -12.309      32.539      35.621
  C      -12.679      31.980      36.799
  C      -13.699      32.361      37.640
  C      -14.482      33.520      37.268
  O      -15.361      34.052      37.943
  N      -13.776      31.539      38.735
  C      -12.804      30.665      38.562
  N      -12.079      30.920      37.424
  O      -10.451      25.488      40.003
  O      -10.300      27.132      41.948
  H       -8.420      32.179      38.323
  H      -10.214      24.918      40.760
  H      -14.637      34.826      35.725
  H      -12.569      29.856      39.242
  H      -10.641      30.592      35.982
  H       -9.842      30.599      38.963
  H      -13.383      34.948      33.755
  H       -7.866      29.463      38.243
  H      -12.075      33.832      33.518
  H       -9.280      28.013      36.183
  H      -10.188      26.557      38.000
  H       -8.431      26.815      38.129
  P       -6.571      30.797      36.433
  C       -6.050      30.206      33.951
  O       -6.110      31.201      34.954
  O       -5.596      29.589      36.821
  O       -6.557      31.893      37.446
  H       -4.823      29.920      37.312
  H       -6.494      29.261      34.278
  H       -5.004      30.030      33.687
  H       -6.585      30.559      33.066
  H      -14.071      27.132      40.297
  H      -13.104      26.995      41.746
  H      -13.083      25.715      40.557

 3  4  5  6  7  8  9  10  11  12  23  26  30  31  33  0
 6-311+G(2d,p)
 ****
 35  36  37  38 0
 6-311+G(2d,p)
 ****
 1  2  13  14  15  16  17  18  19  20  21  22  24  25  27  28  29 0
 3-21G
 ****
 32  34  39  40  41  42  43  44  45  46  47  48  49 0
 3-21G
 ****


