%nproc=1
%NoSave
%Mem=1900MB
#P OB98/GEN NMR

erre ene a

0 1
  C       29.274     255.312     927.444
  O       28.019     255.754     927.916
  H       30.014     255.466     928.233
  H       29.574     255.885     926.563
  H       29.235     254.247     927.205
  P       26.788     255.648     926.887
  C       25.301     254.529     928.692
  O       25.482     255.644     927.826
  C       24.883     254.993     930.087
  O       26.031     255.413     930.842
  C       23.911     256.170     930.097
  O       22.578     255.724     929.903
  C       24.124     256.720     931.498
  O       23.361     255.940     932.440
  C       25.629     256.500     931.726
  N       26.993     261.200     933.318
  C       25.991     260.375     933.692
  N       25.649     259.166     933.187
  C       26.492     258.816     932.204
  C       27.555     259.546     931.702
  C       27.807     260.786     932.318
  N       28.836     261.629     931.918
  N       28.190     258.870     930.681
  C       27.537     257.720     930.600
  N       26.481     257.654     931.471
  O       26.878     254.551     925.882
  O       26.770     257.132     926.282
  H       22.422     256.054     932.207
  H       26.932     257.793     926.989
  H       25.361     260.743     934.505
  H       27.815     256.886     929.942
  H       25.835     256.172     932.750
  H       23.787     257.758     931.603
  H       24.201     256.942     929.352
  H       24.442     254.125     930.621
  H       26.233     253.946     928.763
  H       28.815     262.564     932.274
  H       29.353     261.374     931.092
  H       24.529     253.887     928.262
  P       21.643     256.356     928.769
  C       21.268     254.222     927.371
  O       20.696     255.142     928.294
  O       22.374     257.075     927.688
  O       20.635     257.305     929.573
  H       20.197     257.929     928.967
  H       20.551     253.465     927.131
  H       22.132     253.768     927.809
  H       21.551     254.741     926.479

 6  7  8  9  10  11  12  13  14  15  25  28  32  33  34  35 0
 6-311+G(2d,p)
 ****
 36  39  40 0
 6-311+G(2d,p)
 ****
 1  2  3  4  5  16  17  18  19  20  21  22  23  24 0
 3-21G
 ****
 26  27  29  30  31  37  38  41  42  43  44  45  46  47 0
 3-21G
 ****
 48 0
 3-21G
 ****


