%nproc=1
%NoSave
%Mem=1900MB
#P OB98/GEN NMR

erre ene a

0 1
  C     -459.264      67.354     203.237
  O     -459.306      68.597     202.572
  H     -458.401      66.792     202.872
  H     -460.173      66.789     203.012
  H     -459.168      67.481     204.318
  P     -460.164      69.785     203.214
  C     -461.918      69.661     201.323
  O     -461.686      69.621     202.727
  C     -463.265      69.036     200.956
  O     -463.382      67.737     201.575
  C     -464.452      69.869     201.448
  O     -464.864      70.887     200.555
  C     -465.537      68.806     201.605
  O     -466.260      68.612     200.376
  C     -464.748      67.543     201.966
  N     -467.477      65.491     205.775
  C     -467.875      65.786     204.484
  N     -469.169      65.530     204.190
  N     -467.076      66.292     203.580
  C     -465.841      66.584     204.050
  C     -465.339      66.358     205.313
  C     -466.207      65.726     206.282
  O     -465.899      65.431     207.433
  N     -464.050      66.822     205.435
  C     -463.811      67.404     204.276
  N     -464.835      67.214     203.379
  O     -459.679      71.078     202.397
  O     -459.981      69.991     204.686
  H     -465.684      68.111     199.765
  H     -459.726      71.863     202.972
  H     -468.128      65.075     206.413
  H     -462.900      67.931     204.021
  H     -465.118      66.671     201.414
  H     -466.271      69.106     202.357
  H     -469.847      65.223     204.868
  H     -464.246      70.292     202.434
  H     -469.548      65.905     203.319
  H     -463.306      68.879     199.870
  H     -461.107      69.100     200.859
  H     -461.861      70.689     200.957
  P     -464.944      72.412     201.029
  C     -467.364      72.071     201.986
  O     -466.043      72.526     202.178
  O     -465.633      73.142     199.785
  O     -463.639      73.038     201.395
  H     -464.962      73.577     199.225
  H     -467.933      72.241     202.876
  H     -467.352      71.024     201.765
  H     -467.809      72.602     201.171

 6  7  8  9  10  11  12  13  14  15  26  29  33  34 0
 6-311+G(2d,p)
 ****
 36  38  39  40  41 0
 6-311+G(2d,p)
 ****
 1  2  3  4  5  16  17  18  19  20  21  22  23  24  25 0
 3-21G
 ****
 27  28  30  31  32  35  37  42  43  44  45  46  47 0
 3-21G
 ****
 48  49 0
 3-21G
 ****


