%nproc=1
%NoSave
%Mem=1900MB
#P OB98/GEN NMR

erre ene a

0 1
  C        5.880     -63.048     -44.794
  O        6.978     -62.287     -44.328
  H        5.443     -63.585     -43.946
  H        6.198     -63.775     -45.544
  H        5.120     -62.385     -45.216
  P        7.958     -61.629     -45.417
  C        9.741     -62.535     -47.047
  O        8.724     -62.866     -46.105
  C       10.154     -63.757     -47.868
  O        9.019     -64.309     -48.570
  C       11.176     -63.460     -48.956
  O       12.448     -63.081     -48.484
  C       11.048     -64.685     -49.850
  O       11.802     -65.795     -49.362
  C        9.532     -64.985     -49.740
  N        8.803     -64.604     -50.946
  C        8.958     -65.444     -52.043
  O        9.679     -66.443     -52.039
  N        8.278     -65.079     -53.174
  C        7.516     -63.956     -53.323
  O        6.948     -63.675     -54.373
  C        7.420     -63.086     -52.141
  C        8.057     -63.444     -51.021
  O        8.873     -60.559     -44.901
  O        6.969     -61.130     -46.571
  H       11.469     -65.993     -48.466
  H        7.420     -60.494     -47.179
  H        8.366     -65.684     -53.977
  H        6.834     -62.181     -52.226
  H        8.000     -62.818     -50.133
  H        9.369     -66.060     -49.572
  H       11.384     -64.488     -50.870
  H       10.811     -62.609     -49.546
  H       10.522     -64.523     -47.176
  H       10.609     -62.168     -46.487
  H        9.381     -61.739     -47.708
  P       13.509     -62.261     -49.349
  C       14.253     -62.215     -51.858
  O       13.588     -62.914     -50.812
  O       14.790     -61.897     -48.672
  O       12.702     -60.890     -49.640
  H       13.361     -60.167     -49.659
  H       14.209     -62.793     -52.757
  H       15.275     -62.055     -51.586
  H       13.774     -61.271     -52.017

 6  7  8  9  10  11  12  13  14  15  16  26  31  32  33  34  35 0
 6-311+G(2d,p)
 ****
 36  37 0
 6-311+G(2d,p)
 ****
 1  2  3  4  5  17  18  19  20  21  22  23  24  25 0
 3-21G
 ****
 27  28  29  30  38  39  40  41  42  43  44  45 0
 3-21G
 ****


