%nproc=1
%NoSave
%Mem=1900MB
#P OB98/GEN NMR

erre ene a

0 1
  C      -33.956     863.406    -433.609
  O      -33.298     863.049    -432.389
  P      -31.924     862.198    -432.374
  C      -30.558     864.312    -431.832
  O      -30.706     863.184    -432.689
  C      -29.174     864.954    -431.966
  O      -28.141     863.954    -431.832
  C      -28.924     865.647    -433.309
  O      -29.536     866.919    -433.329
  C      -27.395     865.675    -433.339
  O      -26.892     866.767    -432.558
  C      -27.020     864.334    -432.693
  N      -24.034     862.892    -436.583
  C      -24.033     863.987    -435.793
  N      -24.868     864.301    -434.775
  C      -25.763     863.331    -434.593
  C      -25.904     862.152    -435.325
  C      -24.993     861.951    -436.364
  N      -25.007     860.837    -437.185
  N      -26.964     861.414    -434.854
  C      -27.459     862.122    -433.844
  N      -26.763     863.285    -433.645
  O      -31.968     860.968    -433.229
  O      -31.696     861.821    -430.832
  H      -25.925     866.759    -432.619
  H      -31.200     860.979    -430.766
  H      -23.240     864.716    -436.001
  H      -28.306     861.813    -433.238
  H      -26.155     864.420    -432.047
  H      -26.997     865.797    -434.359
  H      -29.297     865.032    -434.124
  H      -29.042     865.654    -431.130
  H      -30.699     863.974    -430.803
  H      -24.327     860.775    -437.919
  H      -25.735     860.153    -437.061
  H      -31.321     865.038    -432.087
  P      -30.004     867.553    -434.732
  C      -32.378     866.577    -434.691
  O      -31.122     866.593    -435.357
  O      -28.894     867.926    -435.664
  O      -30.846     868.841    -434.291
  H      -30.781     869.526    -434.997
  H      -32.318     865.943    -433.804
  H      -33.127     866.171    -435.380
  H      -32.664     867.594    -434.396
  H      -34.841     863.964    -433.387
  H      -34.219     862.518    -434.145
  H      -33.299     864.003    -434.207

 3  4  5  6  7  8  9  10  11  12  22  25  29  30  31  32 0
 6-311+G(2d,p)
 ****
 33  36  37 0
 6-311+G(2d,p)
 ****
 1  2  13  14  15  16  17  18  19  20  21  23  24  26 0
 3-21G
 ****
 27  28  34  35  38  39  40  41  42  43  44  45  46  47  48 0
 3-21G
 ****


