%nproc=1
%NoSave
%Mem=1900MB
#P OB98/GEN NMR

erre ene a

0 1
  C       28.311      29.364      75.563
  O       28.078      27.977      75.791
  P       27.673      27.502      77.266
  C       28.955      26.915      79.505
  O       28.988      27.270      78.141
  C       30.267      26.204      79.875
  O       30.323      24.901      79.255
  C       31.512      26.965      79.430
  O       31.917      27.927      80.386
  C       32.513      25.844      79.236
  O       33.027      25.407      80.507
  C       31.619      24.747      78.609
  N       31.423      24.763      77.144
  C       32.511      24.971      76.301
  O       33.662      25.154      76.689
  N       32.243      24.953      74.957
  C       31.066      24.586      74.374
  O       30.901      24.530      73.163
  C       29.991      24.230      75.305
  C       30.208      24.344      76.618
  O       27.095      26.030      77.045
  O       26.686      28.394      77.952
  H       32.281      25.034      81.008
  H       26.148      25.998      77.275
  H       33.005      25.173      74.334
  H       29.053      23.888      74.887
  H       29.416      24.083      77.316
  H       31.997      23.750      78.865
  H       33.372      26.176      78.659
  H       31.340      27.433      78.456
  H       30.288      26.061      80.963
  H       28.105      26.262      79.718
  H       28.826      27.814      80.116
  P       31.669      29.484      80.108
  C       32.575      31.184      78.415
  O       32.728      29.894      78.973
  O       31.634      30.367      81.309
  O       30.280      29.504      79.306
  H       29.528      29.678      79.917
  H       33.441      31.398      77.782
  H       32.518      31.939      79.204
  H       31.671      31.219      77.802
  H       28.570      29.518      74.536
  H       29.113      29.698      76.187
  H       27.425      29.917      75.794

 3  4  5  6  7  8  9  10  11  12  13  23  28  29  30  31  32 0
 6-311+G(2d,p)
 ****
 33  34 0
 6-311+G(2d,p)
 ****
 1  2  14  15  16  17  18  19  20  21  22  24  25  26  27 0
 3-21G
 ****
 35  36  37  38  39  40  41  42  43  44  45 0
 3-21G
 ****


