%nproc=1
%NoSave
%Mem=1900MB
#P OB98/GEN NMR

erre ene a

0 1
  C      454.441     199.712      -7.954
  O      454.101     198.358      -8.189
  H      453.953     200.330      -8.712
  H      455.522     199.855      -8.029
  H      454.091     200.026      -6.968
  P      454.755     197.233      -7.256
  C      456.789     195.655      -7.518
  O      456.179     196.881      -7.904
  C      458.038     195.389      -8.358
  O      457.683     195.242      -9.751
  C      459.071     196.507      -8.310
  O      459.772     196.486      -7.083
  C      459.900     196.175      -9.542
  O      460.805     195.095      -9.277
  C      458.797     195.732     -10.533
  N      458.365     196.795     -11.436
  C      459.363     197.370     -12.230
  O      460.531     196.990     -12.132
  N      459.008     198.377     -13.099
  C      457.772     198.744     -13.198
  N      457.490     199.739     -14.079
  C      456.686     198.135     -12.411
  C      457.050     197.188     -11.549
  O      453.899     196.041      -6.959
  O      455.151     198.024      -5.920
  H      460.255     194.350      -8.956
  H      454.439     197.950      -5.256
  H      455.664     198.466     -12.533
  H      456.310     196.685     -10.929
  H      459.149     194.889     -11.144
  H      460.497     197.020      -9.879
  H      458.589     197.478      -8.469
  H      458.471     194.436      -8.025
  H      458.268     200.112     -14.616
  H      456.049     194.864      -7.680
  H      456.551     199.990     -14.361
  H      457.048     195.672      -6.453
  P      459.792     197.753      -6.100
  C      461.035     200.004      -6.056
  O      460.938     198.726      -6.672
  O      459.902     197.433      -4.650
  O      458.451     198.542      -6.480
  H      457.665     198.099      -6.079
  H      461.825     200.561      -6.514
  H      461.242     199.883      -5.013
  H      460.111     200.530      -6.178

 6  7  8  9  10  11  12  13  14  15  16  26  30  31  32  33  35 0
 6-311+G(2d,p)
 ****
 37  38 0
 6-311+G(2d,p)
 ****
 1  2  3  4  5  17  18  19  20  21  22  23  24  25 0
 3-21G
 ****
 27  28  29  34  36  39  40  41  42  43  44  45  46 0
 3-21G
 ****


