%nproc=1
%NoSave
%Mem=1900MB
#P OB98/GEN NMR

erre ene a

0 1
  C     -466.770     394.560     214.262
  O     -465.444     394.193     213.884
  P     -464.524     393.552     215.028
  C     -464.483     391.177     213.971
  O     -464.848     391.977     215.095
  C     -465.378     389.927     213.892
  O     -466.776     390.241     213.984
  C     -465.210     389.160     212.588
  O     -464.032     388.358     212.639
  C     -466.496     388.334     212.553
  O     -466.358     387.130     213.322
  C     -467.525     389.275     213.210
  N     -471.839     389.052     210.545
  C     -471.195     388.069     211.285
  N     -471.819     386.870     211.347
  N     -470.068     388.263     211.905
  C     -469.569     389.507     211.765
  C     -470.120     390.565     211.074
  C     -471.378     390.345     210.386
  O     -471.987     391.183     209.729
  N     -469.351     391.705     211.196
  C     -468.279     391.288     211.849
  N     -468.391     389.990     212.274
  O     -465.161     394.128     216.386
  O     -463.080     393.903     214.898
  H     -465.566     386.646     213.022
  H     -464.550     394.770     216.784
  H     -472.691     388.849     210.079
  H     -467.416     391.900     212.068
  H     -468.188     388.750     213.891
  H     -466.748     388.023     211.540
  H     -472.687     386.658     210.896
  H     -465.182     389.843     211.738
  H     -471.359     386.138     211.899
  H     -465.106     389.276     214.741
  H     -463.439     390.869     214.047
  H     -464.584     391.768     213.060
  P     -462.665     389.009     212.133
  C     -461.558     388.857     214.475
  O     -461.964     389.687     213.394
  O     -463.161     390.253     211.251
  O     -461.790     388.100     211.329
  H     -462.635     390.297     210.422
  H     -460.681     389.335     214.963
  H     -461.282     387.862     214.135
  H     -462.375     388.795     215.201
  H     -467.280     394.973     213.417
  H     -466.729     395.288     215.045
  H     -467.295     393.694     214.607

 3  4  5  6  7  8  9  10  11  12  23  26  30  31 0
 6-311+G(2d,p)
 ****
 33  35  36  37  38 0
 6-311+G(2d,p)
 ****
 1  2  13  14  15  16  17  18  19  20  21  22  24  25 0
 3-21G
 ****
 27  28  29  32  34  39  40  41  42  43  44  45  46  47  48  49 0
 3-21G
 ****


