%nproc=1
%NoSave
%Mem=1900MB
#P OB98/GEN NMR

erre ene a

0 1
  C      337.754    -891.810    -894.120
  O      338.954    -892.370    -893.610
  H      337.514    -892.310    -895.060
  H      337.879    -890.740    -894.290
  H      336.932    -891.990    -893.410
  P      339.465    -891.790    -892.210
  C      340.099    -894.030    -891.040
  O      339.199    -892.940    -891.120
  C      339.374    -895.370    -891.270
  O      338.805    -895.360    -892.600
  C      340.293    -896.600    -891.190
  O      339.504    -897.710    -890.730
  C      340.674    -896.800    -892.630
  O      341.264    -898.080    -892.840
  C      339.323    -896.520    -893.290
  N      340.669    -898.420    -897.840
  C      340.627    -898.980    -896.610
  N      340.248    -898.400    -895.440
  C      339.840    -897.140    -895.650
  C      339.815    -896.450    -896.850
  C      340.255    -897.150    -898.000
  N      340.305    -896.590    -899.250
  N      339.365    -895.170    -896.640
  C      339.113    -895.080    -895.350
  N      339.403    -896.250    -894.720
  O      338.382    -890.670    -891.850
  O      340.860    -891.240    -892.210
  H      342.079    -898.150    -892.310
  H      338.699    -889.800    -892.140
  H      340.962    -900.000    -896.560
  H      338.726    -894.220    -894.830
  H      338.631    -897.350    -893.150
  H      341.431    -896.060    -892.950
  H      341.143    -896.460    -890.500
  H      338.532    -895.440    -890.560
  H      340.565    -894.020    -890.040
  H      340.895    -893.920    -891.800
  H      340.639    -897.160    -900.000
  H      340.021    -895.630    -899.360
  P      339.666    -898.230    -889.210
  C      337.337    -898.360    -887.990
  O      338.509    -897.590    -888.320
  O      340.971    -897.420    -888.740
  O      339.880    -899.710    -889.070
  H      341.421    -897.930    -888.030
  H      336.678    -897.767    -887.391
  H      337.626    -899.234    -887.444
  H      336.836    -898.651    -888.890

 6  7  8  9  10  11  12  13  14  15  25  28  32  33  34  35 0
 6-311+G(2d,p)
 ****
 36  37  40 0
 6-311+G(2d,p)
 ****
 1  2  3  4  5  16  17  18  19  20  21  22  23  24 0
 3-21G
 ****
 26  27  29  30  31  38  39 41  42  43  44  45  46  47  48 0
 3-21G
 ****


