%nproc=1
%NoSave
%Mem=1900MB
#P OB98/GEN NMR

erre ene a

0 1
  C      446.968    -980.336    -291.077
  O      445.667    -980.480    -291.660
  P      445.207    -981.981    -292.022
  C      443.307    -982.614    -290.361
  O      444.698    -982.689    -290.664
  C      442.917    -983.585    -289.236
  O      443.141    -984.939    -289.677
  C      443.712    -983.397    -287.940
  O      442.833    -983.628    -286.824
  C      444.711    -984.535    -287.969
  O      445.192    -984.870    -286.667
  C      443.876    -985.621    -288.644
  N      444.980    -990.550    -288.323
  C      444.006    -989.822    -287.672
  N      443.237    -990.500    -286.792
  N      443.813    -988.545    -287.866
  C      444.627    -988.010    -288.798
  C      445.621    -988.623    -289.522
  C      445.862    -990.029    -289.270
  O      446.733    -990.715    -289.783
  N      446.247    -987.745    -290.378
  C      445.636    -986.588    -290.168
  N      444.648    -986.697    -289.207
  O      446.593    -982.720    -292.336
  O      444.269    -982.065    -293.173
  H      445.922    -985.506    -286.782
  H      446.569    -983.106    -293.229
  H      445.104    -991.526    -288.128
  H      445.872    -985.660    -290.651
  H      443.148    -986.055    -287.940
  H      445.577    -984.248    -288.580
  H      443.299    -991.489    -286.643
  H      444.195    -982.417    -287.833
  H      442.493    -989.986    -286.329
  H      441.847    -983.471    -289.045
  H      442.729    -982.866    -291.257
  H      443.065    -981.587    -290.081
  P      441.653    -982.563    -286.604
  C      439.704    -984.235    -287.033
  O      440.416    -983.093    -287.477
  O      442.160    -981.278    -287.410
  O      441.365    -982.255    -285.174
  H      441.779    -980.465    -287.035
  H      439.969    -984.522    -286.015
  H      439.917    -985.076    -287.700
  H      438.629    -984.018    -287.071
  H      447.159    -979.301    -290.882
  H      447.706    -980.714    -291.754
  H      447.011    -980.885    -290.160

 3  4  5  6  7  8  9  10  11  12  23  26  30  31  33  0
 6-311+G(2d,p)
 ****
 35  36  37  38 0
 6-311+G(2d,p)
 ****
 1  2  13  14  15  16  17  18  19  20  21  22  24  25  27  28  29 0
 3-21G
 ****
 32  34  39  40  41  42  43  44  45  46  47  48  49 0
 3-21G
 ****


