%nproc=1
%NoSave
%Mem=1900MB
#P OB98/GEN NMR

erre ene a

0 1
  C      928.491    -176.563    -892.060
  O      928.575    -177.576    -893.040
  H      928.120    -177.017    -891.130
  H      927.782    -175.796    -892.380
  H      929.469    -176.118    -891.870
  P      929.466    -177.318    -894.350
  C      931.029    -179.355    -894.050
  O      930.029    -178.740    -894.850
  C      931.266    -180.821    -894.450
  O      930.070    -181.592    -894.270
  C      931.644    -180.946    -895.940
  O      933.016    -180.750    -896.240
  C      931.227    -182.387    -896.240
  O      932.260    -183.314    -895.870
  C      929.992    -182.576    -895.330
  N      926.854    -184.516    -898.850
  C      928.123    -184.938    -898.480
  N      928.646    -185.974    -899.190
  N      928.820    -184.388    -897.530
  C      928.224    -183.308    -896.960
  C      926.977    -182.798    -897.270
  C      926.187    -183.455    -898.290
  O      925.065    -183.110    -898.660
  N      926.688    -181.676    -896.500
  C      927.802    -181.477    -895.800
  N      928.741    -182.465    -896.030
  O      930.783    -176.614    -893.760
  O      928.835    -176.465    -895.400
  H      931.930    -184.219    -896.030
  H      931.199    -176.054    -894.440
  H      926.358    -185.017    -899.560
  H      927.951    -180.671    -895.090
  H      930.016    -183.550    -894.840
  H      931.014    -182.528    -897.300
  H      928.191    -186.360    -900.000
  H      931.035    -180.273    -896.560
  H      929.648    -186.134    -899.130
  H      932.039    -181.254    -893.810
  H      930.692    -179.308    -893.020
  H      931.961    -178.786    -894.110
  P      933.459    -179.568    -897.220
  C      935.938    -179.451    -896.440
  O      935.031    -179.739    -897.490
  O      933.372    -178.266    -896.290
  O      932.630    -179.420    -898.450
  H      932.516    -177.815    -896.410
  H      936.940    -179.614    -896.779
  H      935.735    -180.092    -895.608
  H      935.824    -178.430    -896.140

 6  7  8  9  10  11  12  13  14  15  26  29  33  34 0
 6-311+G(2d,p)
 ****
 36  38  39  40  41 0
 6-311+G(2d,p)
 ****
 1  2  3  4  5  16  17  18  19  20  21  22  23  24  25 0
 3-21G
 ****
 27  28  30  31  32  35  37  42  43  44  45  46  47 0
 3-21G
 ****
 48  49 0
 3-21G
 ****


