%nproc=1
%NoSave
%Mem=1900MB
#P OB98/GEN NMR

erre ene a

0 1
  C      -61.718     156.095    -190.337
  O      -62.027     157.046    -189.340
  H      -61.492     156.623    -191.267
  H      -62.570     155.436    -190.510
  H      -60.842     155.502    -190.051
  P      -62.268     156.544    -187.838
  C      -64.813     156.280    -188.168
  O      -63.585     155.628    -187.861
  C      -65.937     155.700    -187.314
  O      -66.261     154.360    -187.752
  C      -65.588     155.580    -185.832
  O      -65.637     156.845    -185.199
  C      -66.646     154.588    -185.379
  O      -67.914     155.234    -185.183
  C      -66.710     153.624    -186.590
  N      -65.913     152.412    -186.395
  C      -66.458     151.449    -185.551
  O      -67.544     151.582    -184.990
  N      -65.689     150.335    -185.343
  C      -64.418     150.143    -185.810
  O      -63.685     149.238    -185.420
  C      -63.924     151.158    -186.751
  C      -64.676     152.237    -186.985
  O      -62.256     157.605    -186.788
  O      -61.095     155.475    -187.606
  H      -60.379     155.890    -187.088
  H      -68.571     154.521    -185.056
  H      -66.054     149.650    -184.697
  H      -62.947     151.010    -187.194
  H      -64.319     153.013    -187.653
  H      -67.748     153.323    -186.787
  H      -66.387     154.104    -184.435
  H      -64.599     155.123    -185.716
  H      -66.829     156.325    -187.454
  H      -65.039     156.114    -189.227
  H      -64.702     157.355    -187.990
  P      -64.440     157.350    -184.263
  C      -65.509     156.663    -182.039
  O      -64.432     156.447    -182.940
  O      -64.410     158.822    -184.012
  O      -63.113     156.875    -185.030
  H      -62.521     157.643    -185.149
  H      -65.405     156.012    -181.196
  H      -66.435     156.460    -182.535
  H      -65.498     157.680    -181.707

 6  7  8  9  10  11  12  13  14  15  16  27  31  32  33  34  35 0
 6-311+G(2d,p)
 ****
 36  37 0
 6-311+G(2d,p)
 ****
 1  2  3  4  5  17  18  19  20  21  22  23  24  25 0
 3-21G
 ****
 26  28  29  30  38  39  40  41  42  43  44  45 0
 3-21G
 ****


