%nproc=1
%NoSave
%Mem=1900MB
#P OB98/GEN NMR

erre ene a

0 1
  C       23.312     -67.787     -46.149
  O       22.418     -68.032     -45.081
  H       22.795     -67.202     -46.915
  H       23.641     -68.733     -46.588
  H       24.178     -67.221     -45.794
  P       22.976     -68.934     -43.877
  C       23.332     -70.918     -45.506
  O       22.727     -70.460     -44.304
  C       23.505     -72.436     -45.472
  O       24.031     -72.918     -46.728
  C       24.445     -72.939     -44.379
  O       23.770     -73.058     -43.141
  C       24.868     -74.283     -44.952
  O       23.852     -75.287     -44.720
  C       24.989     -73.973     -46.449
  N       29.501     -75.615     -48.021
  C       28.398     -76.320     -47.591
  N       28.519     -77.666     -47.539
  N       27.271     -75.761     -47.225
  C       27.312     -74.408     -47.269
  C       28.345     -73.594     -47.678
  C       29.564     -74.229     -48.132
  O       30.544     -73.664     -48.604
  N       27.996     -72.270     -47.595
  C       26.767     -72.284     -47.109
  N       26.312     -73.559     -46.887
  O       21.903     -68.702     -42.706
  O       24.354     -68.604     -43.414
  H       24.185     -76.151     -45.025
  H       22.374     -68.669     -41.853
  H       30.330     -76.101     -48.321
  H       26.167     -71.406     -46.911
  H       24.713     -74.832     -47.072
  H       25.778     -74.654     -44.478
  H       29.420     -78.125     -47.523
  H       25.328     -72.290     -44.291
  H       27.734     -78.178     -47.151
  H       22.506     -72.877     -45.351
  H       24.314     -70.443     -45.612
  H       22.703     -70.637     -46.356
  P       24.538     -72.606     -41.810
  C       24.171     -75.010     -40.898
  O       24.119     -73.613     -40.632
  O       23.799     -71.240     -41.415
  O       26.004     -72.392     -41.980
  H       24.371     -70.479     -41.630
  H       23.866     -75.551     -40.026
  H       25.171     -75.287     -41.158
  H       23.514     -75.243     -41.710

 6  7  8  9  10  11  12  13  14  15  26  29  33  34 0
 6-311+G(2d,p)
 ****
 36  38  39  40  41 0
 6-311+G(2d,p)
 ****
 1  2  3  4  5  16  17  18  19  20  21  22  23  24  25 0
 3-21G
 ****
 27  28  30  31  32  35  37  42  43  44  45  46  47 0
 3-21G
 ****
 48  49 0
 3-21G
 ****


