%nproc=1
%NoSave
%Mem=1900MB
#P OB98/GEN NMR

erre ene a

0 1
  C     -107.020     367.529     468.882
  O     -107.049     368.918     468.543
  P     -105.822     369.879     468.921
  C     -105.925     369.742     471.473
  O     -105.179     369.390     470.309
  C     -105.056     369.892     472.733
  O     -105.875     370.196     473.890
  C     -104.211     368.658     473.086
  O     -103.009     369.167     473.675
  C     -105.073     367.964     474.127
  O     -104.342     367.041     474.916
  C     -105.646     369.180     474.880
  N     -106.869     368.853     475.615
  C     -106.708     368.261     476.869
  O     -105.590     367.991     477.297
  N     -107.837     367.957     477.599
  C     -109.012     368.125     477.071
  N     -110.081     367.785     477.836
  C     -109.222     368.663     475.715
  C     -108.117     369.009     475.059
  O     -106.124     371.343     468.858
  O     -104.690     369.496     467.842
  H     -103.612     367.526     475.358
  H     -104.134     370.276     467.667
  H     -110.213     368.762     475.312
  H     -108.158     369.421     474.048
  H     -104.911     369.564     475.597
  H     -105.889     367.416     473.635
  H     -104.000     368.013     472.228
  H     -104.399     370.755     472.572
  H     -109.898     367.394     478.754
  H     -106.682     368.967     471.651
  H     -111.025     367.764     477.485
  H     -106.466     370.673     471.284
  P     -101.600     369.060     472.926
  C     -100.609     367.127     474.279
  O     -101.125     367.535     473.027
  O     -100.580     370.059     473.373
  O     -101.940     369.246     471.367
  H     -101.124     369.478     470.882
  H     -100.522     366.045     474.291
  H     -101.267     367.437     475.101
  H      -99.610     367.559     474.420
  H     -107.923     367.061     468.548
  H     -106.935     367.423     469.943
  H     -106.181     367.064     468.408

 3  4  5  6  7  8  9  10  11  12  13  23  27  28  29  30  32 0
 6-311+G(2d,p)
 ****
 34  35 0
 6-311+G(2d,p)
 ****
 1  2  14  15  16  17  18  19  20  21  22  24  25  26 0
 3-21G
 ****
 31  33  36  37  38  39  40  41  42  43  44  45  46 0
 3-21G
 ****


