%nproc=1
%NoSave
%Mem=1900MB
#P OB98/GEN NMR

erre ene a

0 1
  C     -201.551     354.474      59.648
  O     -201.818     355.578      58.768
  P     -201.268     357.023      59.185
  C     -203.476     357.638      60.417
  O     -202.061     357.518      60.487
  C     -203.998     358.566      61.517
  O     -203.179     359.748      61.654
  C     -205.411     359.079      61.272
  O     -206.384     358.122      61.669
  C     -205.449     360.284      62.198
  O     -205.686     359.856      63.552
  C     -204.028     360.845      62.059
  N     -205.286     365.695      60.965
  C     -205.588     364.894      62.013
  N     -205.234     363.611      62.228
  C     -204.472     363.158      61.218
  C     -204.077     363.854      60.086
  C     -204.521     365.183      59.971
  N     -204.203     365.987      58.903
  N     -203.301     363.058      59.264
  C     -203.217     361.903      59.900
  N     -203.912     361.914      61.083
  O     -201.825     357.975      58.026
  O     -199.775     357.098      59.283
  H     -206.498     359.314      63.542
  H     -201.180     358.685      57.842
  H     -206.200     365.354      62.788
  H     -202.666     361.041      59.552
  H     -203.637     361.233      63.013
  H     -206.252     360.988      61.940
  H     -205.539     359.395      60.229
  H     -203.962     358.014      62.466
  H     -203.941     356.651      60.506
  H     -204.532     366.942      58.904
  H     -203.607     365.622      58.170
  H     -203.755     358.013      59.422
  P     -207.040     357.223      60.511
  C     -209.353     358.384      60.789
  O     -208.265     358.079      59.933
  O     -207.744     356.042      61.332
  O     -206.064     356.707      59.507
  H     -207.756     355.223      60.799
  H     -209.925     359.206      60.352
  H     -208.999     358.691      61.778
  H     -209.997     357.505      60.886
  H     -201.977     353.581      59.240
  H     -201.984     354.670      60.607
  H     -200.493     354.349      59.753

 3  4  5  6  7  8  9  10  11  12  22  25  29  30  31  32 0
 6-311+G(2d,p)
 ****
 33  36  37 0
 6-311+G(2d,p)
 ****
 1  2  13  14  15  16  17  18  19  20  21  23  24  26 0
 3-21G
 ****
 27  28  34  35  38  39  40  41  42  43  44  45  46  47  48 0
 3-21G
 ****


