%nproc=1
%NoSave
%Mem=1900MB
#P OB98/GEN NMR

erre ene a

0 1
  C     -161.256     -82.361      59.586
  O     -161.633     -83.166      58.491
  P     -162.801     -84.262      58.644
  C     -160.835     -85.933      58.531
  O     -162.069     -85.594      59.166
  C     -159.768     -86.260      59.572
  O     -159.394     -85.079      60.312
  C     -160.198     -87.284      60.616
  O     -160.178     -88.597      60.073
  C     -159.190     -87.031      61.715
  O     -157.957     -87.715      61.459
  C     -158.992     -85.496      61.634
  N     -159.722     -84.784      62.676
  C     -159.288     -85.005      63.987
  O     -158.367     -85.795      64.219
  N     -159.949     -84.367      65.016
  C     -160.957     -83.601      64.756
  N     -161.579     -83.009      65.810
  C     -161.462     -83.361      63.388
  C     -160.810     -83.981      62.407
  O     -163.670     -84.432      57.441
  O     -163.602     -83.761      59.939
  H     -158.176     -88.674      61.437
  H     -164.153     -82.967      59.740
  H     -162.319     -82.722      63.220
  H     -161.114     -83.867      61.373
  H     -157.926     -85.245      61.724
  H     -159.544     -87.374      62.700
  H     -161.207     -87.038      60.979
  H     -158.874     -86.623      59.039
  H     -161.212     -83.227      66.738
  H     -160.509     -85.077      57.930
  H     -162.395     -82.422      65.724
  H     -160.994     -86.783      57.856
  P     -161.548     -89.358      59.775
  C     -160.647     -91.490      60.883
  O     -161.700     -90.536      60.848
  O     -161.758     -89.765      58.348
  O     -162.674     -88.307      60.230
  H     -163.375     -88.289      59.552
  H     -160.688     -92.017      61.839
  H     -159.672     -91.012      60.791
  H     -160.780     -92.209      60.081
  H     -160.469     -81.700      59.288
  H     -160.914     -82.984      60.386
  H     -162.098     -81.789      59.914

 3  4  5  6  7  8  9  10  11  12  13  23  27  28  29  30  32 0
 6-311+G(2d,p)
 ****
 34  35 0
 6-311+G(2d,p)
 ****
 1  2  14  15  16  17  18  19  20  21  22  24  25  26 0
 3-21G
 ****
 31  33  36  37  38  39  40  41  42  43  44  45  46 0
 3-21G
 ****


