%nproc=1
%NoSave
%Mem=1900MB
#P OB98/GEN NMR

erre ene a

0 1
  C      604.148     746.077    -759.910
  O      604.211     745.775    -761.292
  H      603.767     747.103    -759.802
  H      605.136     746.024    -759.453
  H      603.464     745.397    -759.407
  P      604.979     744.434    -761.740
  C      602.884     743.505    -762.943
  O      603.834     743.318    -761.888
  C      603.181     742.587    -764.120
  O      602.964     741.205    -763.746
  C      602.281     742.813    -765.328
  O      602.508     744.043    -765.990
  C      602.417     741.508    -766.095
  O      603.532     741.472    -766.963
  C      602.624     740.482    -764.946
  N      601.451     739.628    -764.752
  C      601.052     738.889    -765.861
  O      601.619     738.952    -766.951
  N      599.945     738.102    -765.693
  C      599.194     738.021    -764.551
  O      598.181     737.330    -764.472
  C      599.652     738.850    -763.419
  C      600.741     739.610    -763.574
  O      606.120     744.018    -760.855
  O      605.411     744.723    -763.247
  H      603.559     742.341    -767.436
  H      606.106     744.089    -763.543
  H      599.652     737.549    -766.473
  H      599.066     738.821    -762.502
  H      601.087     740.229    -762.740
  H      603.480     739.830    -765.161
  H      601.528     741.307    -766.696
  H      601.247     742.853    -764.970
  H      604.236     742.705    -764.390
  H      602.958     744.554    -763.268
  H      601.868     743.334    -762.556
  P      601.423     744.771    -766.910
  C      601.516     746.942    -765.482
  O      600.714     745.912    -766.021
  O      600.584     743.887    -767.776
  O      602.364     745.644    -767.883
  H      601.932     745.689    -768.759
  H      600.902     747.616    -764.921
  H      601.995     747.474    -766.277
  H      602.258     746.517    -764.839

 6  7  8  9  10  11  12  13  14  15  16  26  31  32  33  34  35 0
 6-311+G(2d,p)
 ****
 36  37 0
 6-311+G(2d,p)
 ****
 1  2  3  4  5  17  18  19  20  21  22  23  24  25 0
 3-21G
 ****
 27  28  29  30  38  39  40  41  42  43  44  45 0
 3-21G
 ****


