%nproc=1
%NoSave
%Mem=1900MB
#P OB98/GEN NMR

erre ene a

0 1
  C      288.402      22.775     -43.095
  O      288.214      21.843     -44.143
  H      289.016      23.599     -43.465
  H      288.915      22.297     -42.256
  H      287.439      23.171     -42.765
  P      287.318      20.558     -43.802
  C      284.954      21.520     -44.335
  O      286.017      20.667     -44.733
  C      283.601      20.842     -44.589
  O      282.562      21.606     -43.907
  C      283.206      20.780     -46.073
  O      282.370      19.624     -46.259
  C      282.370      22.040     -46.222
  O      281.634      22.021     -47.424
  C      281.593      21.985     -44.910
  N      277.363      24.823     -45.346
  C      277.654      23.574     -45.764
  N      278.797      22.880     -45.602
  C      279.694      23.598     -44.904
  C      279.538      24.879     -44.402
  C      278.304      25.506     -44.650
  N      278.008      26.781     -44.230
  N      280.684      25.287     -43.741
  C      281.513      24.268     -43.844
  N      280.963      23.231     -44.543
  O      286.765      20.874     -42.334
  O      288.027      19.246     -43.864
  H      280.944      22.717     -47.421
  H      287.336      20.449     -41.666
  H      276.862      23.064     -46.309
  H      282.518      24.232     -43.442
  H      280.815      21.211     -44.930
  H      283.009      22.929     -46.261
  H      284.063      20.723     -46.748
  H      283.610      19.845     -44.133
  H      285.019      22.447     -44.914
  H      285.050      21.751     -43.270
  H      277.106      27.163     -44.463
  H      278.706      27.307     -43.727
  P      282.972      18.337     -47.012
  C      284.462      17.416     -45.069
  O      283.339      17.225     -45.916
  O      284.424      18.858     -47.452
  O      282.201      17.860     -48.197
  H      284.712      18.384     -48.256
  H      284.555      16.581     -44.406
  H      284.330      18.312     -44.499
  H      285.347      17.499     -45.664

 6  7  8  9  10  11  12  13  14  15  25  28  32  33  34  35 0
 6-311+G(2d,p)
 ****
 36  37  40 0
 6-311+G(2d,p)
 ****
 1  2  3  4  5  16  17  18  19  20  21  22  23  24 0
 3-21G
 ****
 26  27  29  30  31  38  39 41  42  43  44  45  46  47  48 0
 3-21G
 ****


