%nproc=1
%NoSave
%Mem=1900MB
#P OB98/GEN NMR

erre ene a

0 1
  C     -207.625     426.361     291.352
  O     -207.746     425.053     291.864
  H     -206.643     426.461     290.884
  H     -207.704     427.087     292.167
  H     -208.391     426.562     290.599
  P     -209.191     424.527     292.312
  C     -208.639     423.550     294.641
  O     -208.956     423.269     293.281
  C     -207.846     422.391     295.268
  O     -206.553     422.294     294.608
  C     -207.583     422.630     296.757
  O     -207.450     421.407     297.482
  C     -206.237     423.345     296.745
  O     -205.534     423.228     297.983
  C     -205.543     422.668     295.568
  N     -201.412     425.604     296.161
  C     -202.263     425.080     297.122
  N     -201.967     425.388     298.408
  N     -203.308     424.353     296.847
  C     -203.521     424.198     295.513
  C     -202.772     424.682     294.469
  C     -201.590     425.457     294.791
  O     -200.816     425.961     293.978
  N     -203.305     424.319     293.258
  C     -204.385     423.627     293.567
  N     -204.545     423.497     294.928
  O     -209.767     423.837     290.987
  O     -210.126     425.569     292.837
  H     -205.572     422.292     298.246
  H     -210.737     423.790     291.023
  H     -200.609     426.136     296.433
  H     -205.061     423.177     292.855
  H     -205.045     421.744     295.893
  H     -206.418     424.405     296.576
  H     -201.289     426.100     298.649
  H     -208.349     423.244     297.226
  H     -202.730     425.284     299.089
  H     -208.365     421.439     295.080
  H     -209.581     423.699     295.169
  H     -208.073     424.483     294.708
  P     -208.252     421.254     298.859
  C     -206.159     420.872     300.444
  O     -207.379     420.405     299.902
  O     -209.460     420.273     298.491
  O     -208.740     422.541     299.445
  H     -210.313     420.737     298.585
  H     -205.761     420.137     301.112
  H     -206.331     421.783     300.978
  H     -205.462     421.049     299.652

 6  7  8  9  10  11  12  13  14  15  26  29  33  34 0
 6-311+G(2d,p)
 ****
 36  38  39  40  41 0
 6-311+G(2d,p)
 ****
 1  2  3  4  5  16  17  18  19  20  21  22  23  24  25 0
 3-21G
 ****
 27  28  30  31  32  35  37  42  43  44  45  46  47 0
 3-21G
 ****
 48  49 0
 3-21G
 ****


