%nproc=1
%NoSave
%Mem=1900MB
#P OB98/GEN NMR

erre ene a

0 1
  C      722.055    -894.317     745.113
  O      721.701    -894.817     746.391
  H      721.727    -893.287     745.039
  H      721.563    -894.897     744.330
  H      723.138    -894.347     744.977
  P      722.209    -896.277     746.826
  C      724.384    -895.487     747.961
  O      723.120    -896.077     748.142
  C      724.849    -894.807     749.257
  O      723.941    -893.737     749.627
  C      724.856    -895.757     750.457
  O      725.965    -896.637     750.421
  C      724.863    -894.747     751.603
  O      726.191    -894.277     751.877
  C      723.961    -893.597     751.049
  N      722.598    -893.657     751.630
  C      722.505    -893.297     752.939
  O      723.454    -892.937     753.640
  N      721.245    -893.397     753.486
  C      720.146    -893.947     752.854
  O      719.122    -894.227     753.450
  C      720.317    -894.227     751.417
  C      721.530    -894.077     750.881
  O      722.834    -897.087     745.735
  O      720.889    -896.987     747.407
  H      720.541    -897.587     746.730
  H      726.125    -893.647     752.600
  H      721.169    -893.177     754.471
  H      719.466    -894.607     750.882
  H      721.686    -894.337     749.819
  H      724.421    -892.617     751.284
  H      724.488    -895.167     752.539
  H      723.903    -896.317     750.482
  H      725.854    -894.377     749.106
  H      724.311    -894.717     747.165
  H      725.111    -896.227     747.635
  P      725.872    -898.057     751.219
  C      725.469    -899.167     748.937
  O      726.174    -899.227     750.183
  O      724.670    -898.237     752.057
  O      727.210    -898.007     752.126
  H      726.958    -898.227     753.041
  H      725.751    -900.000     748.327
  H      725.714    -898.256     748.432
  H      724.416    -899.201     749.121

 6  7  8  9  10  11  12  13  14  15  16  27  31  32  33  34  35 0
 6-311+G(2d,p)
 ****
 36  37 0
 6-311+G(2d,p)
 ****
 1  2  3  4  5  17  18  19  20  21  22  23  24  25 0
 3-21G
 ****
 26  28  29  30  38  39  40  41  42  43  44  45 0
 3-21G
 ****


