%nproc=1
%NoSave
%Mem=1900MB
#P OB98/GEN NMR

erre ene a

0 1
  C     -614.179    -446.283     -12.115
  O     -614.295    -447.137     -10.984
  P     -613.727    -446.585      -9.576
  C     -611.344    -446.306      -8.584
  O     -612.169    -446.934      -9.558
  C     -610.345    -447.306      -8.008
  O     -609.285    -447.568      -8.950
  C     -609.645    -446.825      -6.736
  O     -610.445    -447.011      -5.583
  C     -608.436    -447.755      -6.709
  O     -608.815    -449.037      -6.169
  C     -608.085    -447.866      -8.193
  N     -603.662    -445.810      -6.806
  C     -604.380    -446.846      -6.232
  N     -603.871    -447.363      -5.088
  N     -605.492    -447.344      -6.730
  C     -605.886    -446.701      -7.860
  C     -605.257    -445.683      -8.540
  C     -604.039    -445.147      -7.968
  O     -603.394    -444.201      -8.406
  N     -605.963    -445.315      -9.658
  C     -606.999    -446.136      -9.684
  N     -607.013    -446.967      -8.592
  O     -614.351    -447.613      -8.513
  O     -614.083    -445.169      -9.268
  H     -608.856    -448.927      -5.198
  H     -614.298    -447.232      -7.620
  H     -602.825    -445.484      -6.385
  H     -607.765    -446.135     -10.443
  H     -607.778    -448.890      -8.467
  H     -607.631    -447.368      -6.074
  H     -603.056    -446.999      -4.624
  H     -609.310    -445.787      -6.845
  H     -604.402    -448.089      -4.609
  H     -610.870    -448.248      -7.817
  H     -611.974    -445.917      -7.783
  H     -610.816    -445.468      -9.051
  P     -609.925    -446.315      -4.231
  C     -607.945    -446.775      -2.620
  O     -608.669    -447.184      -3.757
  O     -611.078    -446.668      -3.172
  O     -609.705    -444.840      -4.345
  H     -611.110    -446.013      -2.462
  H     -607.309    -447.603      -2.282
  H     -608.626    -446.507      -1.802
  H     -607.312    -445.915      -2.853
  H     -614.592    -446.770     -12.974
  H     -613.147    -446.063     -12.292
  H     -614.711    -445.373     -11.931

 3  4  5  6  7  8  9  10  11  12  23  26  30  31 0
 6-311+G(2d,p)
 ****
 33  35  36  37  38 0
 6-311+G(2d,p)
 ****
 1  2  13  14  15  16  17  18  19  20  21  22  24  25 0
 3-21G
 ****
 27  28  29  32  34  39  40  41  42  43  44  45  46  47  48  49 0
 3-21G
 ****


