%nproc=1
%NoSave
%Mem=1900MB
#P OB98/GEN NMR

erre ene a

0 1
  C      345.352     -59.151     151.829
  O      345.397     -57.986     151.003
  P      345.195     -58.143     149.419
  C      347.677     -58.158     148.715
  O      346.470     -58.901     148.803
  C      348.422     -58.464     147.407
  O      349.631     -57.656     147.331
  C      348.836     -59.940     147.286
  O      348.443     -60.533     146.045
  C      350.327     -59.916     147.565
  O      351.016     -61.030     147.015
  C      350.743     -58.525     147.062
  N      351.978     -58.055     147.707
  C      352.857     -57.333     146.910
  O      352.680     -57.142     145.708
  N      353.989     -56.876     147.535
  C      354.354     -57.137     148.821
  O      355.406     -56.750     149.321
  C      353.415     -57.965     149.596
  C      352.287     -58.377     149.009
  O      344.783     -56.905     148.692
  O      344.050     -59.265     149.312
  H      350.977     -60.962     146.036
  H      343.454     -59.020     148.576
  H      354.631     -56.333     146.975
  H      353.682     -58.212     150.612
  H      351.582     -59.000     149.552
  H      350.926     -58.539     145.984
  H      350.477     -59.953     148.652
  H      348.335     -60.557     148.042
  H      347.761     -58.186     146.585
  H      348.319     -58.412     149.560
  H      347.454     -57.086     148.816
  P      347.138     -61.440     145.852
  C      347.748     -63.237     147.621
  O      346.854     -62.213     147.222
  O      347.128     -62.305     144.632
  O      345.950     -60.365     145.775
  H      345.311     -60.639     145.093
  H      347.234     -63.886     148.336
  H      348.615     -62.788     148.109
  H      348.073     -63.836     146.763
  H      345.504     -58.870     152.850
  H      346.121     -59.832     151.528
  H      344.397     -59.624     151.727

 3  4  5  6  7  8  9  10  11  12  13  23  28  29  30  31  32 0
 6-311+G(2d,p)
 ****
 33  34 0
 6-311+G(2d,p)
 ****
 1  2  14  15  16  17  18  19  20  21  22  24  25  26  27 0
 3-21G
 ****
 35  36  37  38  39  40  41  42  43  44  45 0
 3-21G
 ****


