%nproc=1
%NoSave
%Mem=1900MB
#P OB98/GEN NMR

erre ene a

0 1
  C      -88.821    -503.726     -10.885
  O      -88.421    -503.153      -9.633
  P      -86.878    -502.975      -9.231
  C      -86.556    -500.770     -10.528
  O      -86.516    -501.409      -9.254
  C      -85.288    -499.954     -10.793
  O      -85.266    -499.462     -12.146
  C      -85.123    -498.730      -9.895
  O      -84.654    -499.109      -8.617
  C      -84.150    -497.887     -10.716
  O      -82.801    -498.345     -10.525
  C      -84.614    -498.178     -12.152
  N      -85.192    -494.610     -15.773
  C      -84.202    -495.496     -15.524
  N      -84.117    -496.411     -14.539
  C      -85.216    -496.381     -13.768
  C      -86.308    -495.525     -13.893
  C      -86.269    -494.605     -14.953
  N      -87.273    -493.695     -15.191
  N      -87.233    -495.770     -12.902
  C      -86.719    -496.760     -12.197
  N      -85.506    -497.165     -12.682
  O      -85.934    -503.833     -10.014
  O      -86.813    -503.347      -7.673
  H      -82.727    -499.218     -10.958
  H      -85.930    -503.689      -7.452
  H      -83.358    -495.463     -16.215
  H      -87.189    -497.221     -11.338
  H      -83.766    -498.259     -12.845
  H      -84.176    -496.829     -10.448
  H      -86.076    -498.201      -9.810
  H      -84.428    -500.629     -10.679
  H      -87.430    -500.106     -10.556
  H      -87.156    -493.041     -15.948
  H      -88.062    -493.652     -14.557
  H      -86.676    -501.538     -11.300
  P      -85.225    -498.391      -7.305
  C      -87.377    -499.672      -6.746
  O      -86.002    -499.509      -6.457
  O      -85.984    -497.131      -7.537
  O      -83.916    -498.127      -6.413
  H      -84.058    -497.328      -5.868
  H      -87.953    -498.897      -6.244
  H      -87.695    -500.646      -6.377
  H      -87.556    -499.631      -7.826
  H      -89.889    -503.748     -10.942
  H      -88.439    -504.723     -10.959
  H      -88.433    -503.135     -11.688

 3  4  5  6  7  8  9  10  11  12  22  25  29  30  31  32 0
 6-311+G(2d,p)
 ****
 33  36  37 0
 6-311+G(2d,p)
 ****
 1  2  13  14  15  16  17  18  19  20  21  23  24  26 0
 3-21G
 ****
 27  28  34  35  38  39  40  41  42  43  44  45  46  47  48 0
 3-21G
 ****


