%nproc=1
%NoSave
%Mem=1900MB
#P OB98/GEN NMR

erre ene a

0 1
  C      243.502    -655.598     -69.254
  O      242.741    -655.632     -68.066
  P      241.431    -656.552     -67.979
  C      242.969    -658.615     -67.551
  O      241.894    -658.056     -68.281
  C      242.469    -659.302     -66.265
  O      241.533    -660.338     -66.657
  C      243.553    -660.001     -65.453
  O      243.058    -660.226     -64.130
  C      243.678    -661.327     -66.171
  O      244.284    -662.332     -65.359
  C      242.215    -661.616     -66.605
  N      242.155    -662.279     -67.923
  C      241.112    -663.194     -68.114
  O      240.234    -663.400     -67.274
  N      241.167    -663.936     -69.271
  C      242.175    -663.866     -70.198
  O      242.383    -664.727     -71.045
  C      243.104    -662.736     -70.051
  C      243.066    -662.022     -68.922
  O      240.613    -656.130     -69.279
  O      240.621    -656.375     -66.734
  H      244.346    -663.143     -65.916
  H      239.935    -655.464     -69.060
  H      240.496    -664.697     -69.339
  H      243.823    -662.559     -70.845
  H      243.780    -661.205     -68.767
  H      241.708    -662.262     -65.875
  H      244.308    -661.192     -67.062
  H      244.513    -659.463     -65.412
  H      241.923    -658.578     -65.653
  H      243.689    -657.825     -67.302
  H      243.505    -659.347     -68.157
  P      244.119    -660.415     -62.947
  C      242.969    -658.464     -61.727
  O      244.195    -659.001     -62.181
  O      245.443    -661.002     -63.329
  O      243.338    -661.343     -61.897
  H      243.974    -661.760     -61.288
  H      243.164    -657.857     -60.833
  H      242.254    -659.260     -61.469
  H      242.547    -657.828     -62.503
  H      244.332    -654.935     -69.127
  H      242.889    -655.252     -70.060
  H      243.862    -656.581     -69.476

 3  4  5  6  7  8  9  10  11  12  13  23  28  29  30  31  32 0
 6-311+G(2d,p)
 ****
 33  34 0
 6-311+G(2d,p)
 ****
 1  2  14  15  16  17  18  19  20  21  22  24  25  26  27 0
 3-21G
 ****
 35  36  37  38  39  40  41  42  43  44  45 0
 3-21G
 ****


