%nproc=1
%NoSave
%Mem=1900MB
#P OB98/GEN NMR

erre ene a

0 1
  C      471.624     381.050    -397.399
  O      471.972     379.937    -396.602
  H      471.667     381.953    -396.781
  H      470.602     380.935    -397.773
  H      472.320     381.157    -398.238
  P      472.055     378.514    -397.336
  C      469.622     377.958    -396.612
  O      470.542     378.098    -397.690
  C      468.197     378.268    -397.074
  O      468.011     377.724    -398.418
  C      467.100     377.670    -396.175
  O      465.996     378.586    -396.153
  C      466.669     376.425    -396.951
  O      465.365     375.985    -396.584
  C      466.788     376.949    -398.382
  N      464.935     375.446    -402.814
  C      464.745     376.629    -402.120
  N      463.946     377.554    -402.690
  N      465.307     376.883    -400.960
  C      466.111     375.875    -400.523
  C      466.364     374.665    -401.113
  C      465.724     374.384    -402.384
  O      465.832     373.350    -403.036
  N      467.218     373.906    -400.336
  C      467.463     374.662    -399.288
  N      466.821     375.868    -399.353
  O      472.449     377.522    -396.145
  O      473.021     378.435    -398.474
  H      465.331     375.939    -395.603
  H      473.420     377.409    -396.105
  H      464.470     375.301    -403.695
  H      468.104     374.389    -398.454
  H      465.958     377.600    -398.661
  H      467.374     375.606    -396.765
  H      463.525     377.452    -403.600
  H      467.423     377.449    -395.154
  H      463.838     378.442    -402.211
  H      468.085     379.353    -397.163
  H      469.902     378.653    -395.816
  H      469.677     376.928    -396.232
  P      465.927     379.657    -394.964
  C      465.357     377.848    -393.175
  O      466.233     378.886    -393.588
  O      464.359     379.968    -394.857
  O      466.727     380.895    -395.210
  H      464.231     380.871    -394.507
  H      465.699     377.441    -392.247
  H      465.341     377.078    -393.918
  H      464.370     378.243    -393.049

 6  7  8  9  10  11  12  13  14  15  26  29  33  34 0
 6-311+G(2d,p)
 ****
 36  38  39  40  41 0
 6-311+G(2d,p)
 ****
 1  2  3  4  5  16  17  18  19  20  21  22  23  24  25 0
 3-21G
 ****
 27  28  30  31  32  35  37  42  43  44  45  46  47 0
 3-21G
 ****
 48  49 0
 3-21G
 ****


