%nproc=1
%NoSave
%Mem=1900MB
#P OB98/GEN NMR

erre ene a

0 1
  C     -336.987     463.001     -52.439
  O     -335.984     463.933     -52.082
  P     -336.164     464.729     -50.702
  C     -333.783     463.900     -50.032
  O     -334.697     464.983     -50.106
  C     -332.349     464.434     -49.997
  O     -331.994     465.001     -51.275
  C     -332.141     465.546     -48.981
  O     -332.008     465.030     -47.664
  C     -330.874     466.207     -49.501
  O     -329.703     465.502     -49.056
  C     -331.046     466.066     -51.027
  N     -331.454     467.314     -51.667
  C     -330.424     468.098     -52.180
  O     -329.235     467.786     -52.088
  N     -330.800     469.275     -52.762
  C     -332.072     469.762     -52.833
  O     -332.343     470.856     -53.322
  C     -333.118     468.904     -52.250
  C     -332.765     467.741     -51.694
  O     -336.793     463.641     -49.711
  O     -337.012     465.952     -50.798
  H     -329.762     465.446     -48.084
  H     -337.424     464.071     -49.104
  H     -330.075     469.845     -53.160
  H     -334.136     469.261     -52.286
  H     -333.515     467.102     -51.245
  H     -330.104     465.739     -51.487
  H     -330.773     467.240     -49.157
  H     -332.967     466.266     -49.036
  H     -331.673     463.595     -49.793
  H     -333.915     463.253     -50.903
  H     -333.997     463.310     -49.134
  P     -331.835     466.098     -46.478
  C     -334.291     465.587     -45.756
  O     -332.935     465.688     -45.387
  O     -332.408     467.418     -47.178
  O     -330.428     466.208     -45.994
  H     -333.118     467.218     -47.812
  H     -334.404     465.199     -46.773
  H     -334.762     466.571     -45.690
  H     -334.797     464.910     -45.063
  H     -336.737     462.549     -53.376
  H     -337.927     463.504     -52.526
  H     -337.056     462.245     -51.685

 3  4  5  6  7  8  9  10  11  12  13  23  28  29  30  31  32 0
 6-311+G(2d,p)
 ****
 33  34 0
 6-311+G(2d,p)
 ****
 1  2  14  15  16  17  18  19  20  21  22  24  25  26 0
 3-21G
 ****
 27  35  36  37  38  39  40  41  42  43  44  45 0
 3-21G
 ****


