%nproc=1
%NoSave
%Mem=1900MB
#P OB98/GEN NMR

erre ene a

0 1
  C     -686.905    -350.063     266.051
  O     -686.247    -348.952     266.647
  P     -686.488    -347.499     265.985
  C     -686.257    -346.590     263.567
  O     -685.928    -347.630     264.476
  C     -685.054    -346.260     262.685
  O     -684.323    -347.477     262.395
  C     -685.407    -345.675     261.325
  O     -685.673    -344.282     261.407
  C     -684.119    -345.934     260.542
  O     -683.147    -344.915     260.847
  C     -683.674    -347.296     261.116
  N     -682.771    -349.589     256.691
  C     -682.212    -348.436     257.221
  N     -681.269    -347.833     256.481
  N     -682.557    -347.929     258.383
  C     -683.494    -348.669     259.029
  C     -684.119    -349.825     258.601
  C     -683.774    -350.348     257.308
  O     -684.274    -351.318     256.735
  N     -685.016    -350.282     259.540
  C     -684.893    -349.441     260.551
  N     -684.002    -348.421     260.259
  O     -685.393    -346.589     266.707
  O     -687.877    -346.952     266.135
  H     -682.306    -345.208     260.442
  H     -685.683    -345.658     266.695
  H     -682.458    -349.953     255.799
  H     -685.413    -349.535     261.498
  H     -682.584    -347.308     261.304
  H     -684.274    -345.934     259.466
  H     -680.858    -348.249     255.647
  H     -686.233    -346.209     260.858
  H     -680.817    -347.010     256.865
  H     -684.393    -345.579     263.240
  H     -686.532    -345.681     264.132
  H     -687.115    -346.893     262.958
  P     -686.589    -343.658     260.240
  C     -686.132    -342.880     257.792
  O     -685.619    -343.493     258.969
  O     -686.838    -342.163     260.735
  O     -687.866    -344.395     260.006
  H     -687.679    -341.812     260.352
  H     -686.832    -342.081     258.035
  H     -686.629    -343.643     257.191
  H     -685.290    -342.471     257.232
  H     -686.657    -350.955     266.588
  H     -686.590    -350.160     265.033
  H     -687.964    -349.910     266.083

 3  4  5  6  7  8  9  10  11  12  23  26  30  31  33  0
 6-311+G(2d,p)
 ****
 35  36  37  38 0
 6-311+G(2d,p)
 ****
 1  2  13  14  15  16  17  18  19  20  21  22  24  25  27  28  29 0
 3-21G
 ****
 32  34  39  40  41  42  43  44  45  46  47  48  49 0
 3-21G
 ****


