%nproc=1
%NoSave
%Mem=1900MB
#P OB98/GEN NMR

erre ene a

0 1
  C     -106.842     -60.239      23.304
  O     -106.549     -61.613      23.586
  P     -106.828     -62.288      25.014
  C     -109.299     -62.764      24.445
  O     -108.058     -63.307      24.886
  C     -110.406     -63.823      24.433
  O     -111.700     -63.202      24.321
  C     -110.331     -64.814      23.279
  O     -109.314     -65.775      23.494
  C     -111.750     -65.372      23.278
  O     -111.898     -66.408      24.263
  C     -112.581     -64.131      23.660
  N     -113.236     -63.522      22.510
  C     -113.927     -64.384      21.655
  O     -113.919     -65.600      21.853
  N     -114.593     -63.848      20.579
  C     -114.512     -62.577      20.338
  N     -115.197     -62.102      19.263
  C     -113.718     -61.647      21.163
  C     -113.115     -62.183      22.222
  O     -106.965     -61.307      26.133
  O     -105.573     -63.251      25.270
  H     -112.833     -66.686      24.236
  H     -105.404     -63.305      26.229
  H     -113.652     -60.600      20.911
  H     -112.518     -61.568      22.887
  H     -113.349     -64.397      24.398
  H     -112.031     -65.804      22.314
  H     -110.153     -64.275      22.340
  H     -110.372     -64.354      25.395
  H     -115.737     -62.765      18.722
  H     -109.161     -62.374      23.431
  H     -115.202     -61.131      18.989
  H     -109.575     -61.936      25.105
  P     -108.205     -66.027      22.367
  C     -106.420     -64.237      22.809
  O     -106.789     -65.594      22.975
  O     -108.516     -65.468      21.018
  O     -108.085     -67.626      22.307
  H     -107.858     -67.891      21.397
  H     -105.683     -63.978      23.574
  H     -107.286     -63.577      22.911
  H     -105.971     -64.102      21.822
  H     -106.572     -60.017      22.293
  H     -106.284     -59.612      23.968
  H     -107.888     -60.062      23.441

 3  4  5  6  7  8  9  10  11  12  13  23  27  28  29  30  32 0
 6-311+G(2d,p)
 ****
 34  35 0
 6-311+G(2d,p)
 ****
 1  2  14  15  16  17  18  19  20  21  22  24  25  26 0
 3-21G
 ****
 31  33  36  37  38  39  40  41  42  43  44  45  46 0
 3-21G
 ****


