%nproc=1
%NoSave
%Mem=1900MB
#P OB98/GEN NMR

erre ene a

0 1
  C        8.420    -198.106     -96.780
  O        8.641    -197.956     -98.188
  P        7.485    -197.258     -99.054
  C        7.910    -194.719     -99.409
  O        8.125    -196.041     -99.886
  C        8.717    -193.690    -100.220
  O       10.142    -193.846     -99.983
  C        8.507    -193.811    -101.736
  O        8.659    -192.510    -102.316
  C        9.673    -194.680    -102.161
  O        9.925    -194.571    -103.566
  C       10.771    -194.132    -101.256
  N       14.984    -195.929    -103.371
  C       14.073    -194.998    -103.842
  N       14.358    -194.438    -105.038
  N       12.995    -194.647    -103.195
  C       12.868    -195.267    -101.995
  C       13.689    -196.210    -101.423
  C       14.866    -196.608    -102.161
  O       15.705    -197.438    -101.804
  N       13.215    -196.619    -100.202
  C       12.097    -195.926    -100.042
  N       11.870    -195.067    -101.082
  O        6.600    -196.518     -97.935
  O        6.660    -198.218     -99.846
  H       10.739    -195.089    -103.758
  H        5.751    -196.986     -97.827
  H       15.795    -196.176    -103.917
  H       11.431    -196.008     -99.195
  H       11.205    -193.195    -101.633
  H        9.459    -195.730    -101.939
  H       15.195    -194.627    -105.567
  H        7.537    -194.226    -102.036
  H       13.730    -193.720    -105.391
  H        8.436    -192.690     -99.885
  H        8.195    -194.650     -98.353
  H        6.839    -194.500     -99.443
  P        7.346    -191.824    -102.926
  C        6.719    -189.864    -101.345
  O        7.412    -190.282    -102.501
  O        6.157    -192.411    -102.020
  O        7.121    -192.086    -104.380
  H        5.318    -192.396    -102.511
  H        7.435    -189.723    -100.528
  H        5.959    -190.592    -101.033
  H        6.216    -188.909    -101.551
  H        9.268    -198.584     -96.335
  H        7.548    -198.704     -96.618
  H        8.280    -197.142     -96.336

 3  4  5  6  7  8  9  10  11  12  23  26  30  31 0
 6-311+G(2d,p)
 ****
 33  35  36  37  38 0
 6-311+G(2d,p)
 ****
 1  2  13  14  15  16  17  18  19  20  21  22  24  25 0
 3-21G
 ****
 27  28  29  32  34  39  40  41  42  43  44  45  46  47  48  49 0
 3-21G
 ****


