%nproc=1
%NoSave
%Mem=1900MB
#P OB98/GEN NMR

erre ene a

0 1
  C      752.882    -893.780    -290.858
  O      752.649    -895.180    -290.872
  H      753.718    -893.550    -291.539
  H      753.129    -893.430    -289.857
  H      751.988    -893.250    -291.227
  P      751.548    -895.770    -289.868
  C      749.767    -896.370    -291.642
  O      750.153    -895.480    -290.607
  C      748.726    -897.370    -291.127
  O      749.198    -898.040    -289.949
  C      747.392    -896.740    -290.713
  O      746.586    -896.350    -291.817
  C      746.793    -897.900    -289.941
  O      746.300    -898.900    -290.859
  C      748.037    -898.410    -289.164
  N      748.115    -897.880    -287.818
  C      748.316    -898.810    -286.786
  O      748.413    -900.000    -287.018
  N      748.363    -898.350    -285.485
  C      748.213    -897.090    -285.238
  N      748.234    -896.700    -283.932
  C      748.029    -896.070    -286.291
  C      747.984    -896.540    -287.538
  O      751.637    -895.320    -288.451
  O      751.682    -897.360    -290.036
  H      745.652    -898.470    -291.435
  H      751.022    -897.780    -289.440
  H      747.888    -895.050    -286.034
  H      747.826    -895.860    -288.366
  H      748.009    -899.510    -289.110
  H      745.951    -897.600    -289.310
  H      747.542    -895.910    -290.026
  H      748.576    -898.140    -291.912
  H      748.325    -897.420    -283.244
  H      750.659    -896.880    -292.015
  H      747.857    -895.800    -283.653
  H      749.321    -895.800    -292.473
  P      745.470    -895.210    -291.571
  C      746.658    -893.210    -292.741
  O      746.233    -893.790    -291.528
  O      745.064    -895.460    -290.040
  O      744.289    -895.240    -292.510
  H      744.268    -896.030    -289.989
  H      747.143    -892.278    -292.540
  H      745.811    -893.042    -293.372
  H      747.343    -893.870    -293.231

 6  7  8  9  10  11  12  13  14  15  16  26  30  31  32  33  35 0
 6-311+G(2d,p)
 ****
 37  38 0
 6-311+G(2d,p)
 ****
 1  2  3  4  5  17  18  19  20  21  22  23  24  25 0
 3-21G
 ****
 27  28  29  34  36  39  40  41  42  43  44  45  46 0
 3-21G
 ****


