%nproc=1
%NoSave
%Mem=1900MB
#P OB98/GEN NMR

erre ene a

0 1
  C       66.124      45.155    -156.825
  O       64.780      45.312    -156.417
  H       66.709      45.990    -156.431
  H       66.195      45.158    -157.917
  H       66.528      44.220    -156.426
  P       63.741      44.201    -156.926
  C       62.576      43.976    -159.215
  O       63.770      44.335    -158.529
  C       62.499      44.697    -160.563
  O       62.206      46.097    -160.320
  C       63.799      44.624    -161.367
  O       63.487      44.479    -162.752
  C       64.441      45.981    -161.129
  O       65.323      46.357    -162.183
  C       63.214      46.882    -160.979
  N       65.535      51.425    -161.106
  C       65.278      50.516    -162.069
  N       64.635      49.331    -161.951
  C       64.202      49.149    -160.691
  C       64.393      49.985    -159.603
  C       65.102      51.176    -159.846
  N       65.392      52.097    -158.866
  N       63.838      49.432    -158.465
  C       63.312      48.287    -158.862
  N       63.522      48.067    -160.196
  O       62.383      44.249    -156.306
  O       64.561      42.851    -156.676
  H       64.811      46.389    -163.018
  H       65.489      42.938    -156.964
  H       65.638      50.764    -163.065
  H       62.784      47.584    -158.225
  H       62.820      47.222    -161.944
  H       65.019      45.956    -160.198
  H       64.445      43.807    -161.047
  H       61.655      44.290    -161.130
  H       61.700      44.235    -158.610
  H       65.894      52.930    -159.130
  H       65.063      51.936    -157.924
  H       62.586      42.891    -159.365
  P       64.206      43.309    -163.580
  C       66.381      42.977    -164.931
  O       65.641      43.836    -164.067
  O       63.376      42.645    -164.625
  O       64.602      42.267    -162.425
  H       64.492      41.358    -162.766
  H       67.313      43.440    -165.182
  H       65.819      42.799    -165.824
  H       66.567      42.047    -164.436

 6  7  8  9  10  11  12  13  14  15  25  28  32  33  34  35 0
 6-311+G(2d,p)
 ****
 36  39  40 0
 6-311+G(2d,p)
 ****
 1  2  3  4  5  16  17  18  19  20  21  22  23  24 0
 3-21G
 ****
 26  27  29  30  31  37  38  41  42  43  44  45  46  47 0
 3-21G
 ****
 48 0
 3-21G
 ****


