%nproc=1
%NoSave
%Mem=1900MB
#P OB98/GEN NMR

erre ene a

0 1
  C      114.565     555.665    -412.778
  O      115.817     556.330    -412.807
  P      115.838     557.862    -413.294
  C      116.674     558.293    -415.752
  O      115.660     557.816    -414.887
  C      117.656     557.165    -416.082
  O      116.985     556.132    -416.826
  C      118.843     557.587    -416.950
  O      119.819     558.286    -416.195
  C      119.298     556.241    -417.499
  O      120.097     555.552    -416.521
  C      117.957     555.509    -417.698
  N      117.500     555.514    -419.087
  C      118.113     554.596    -419.939
  O      118.994     553.822    -419.574
  N      117.692     554.623    -421.244
  C      116.787     555.492    -421.779
  O      116.475     555.500    -422.969
  C      116.190     556.454    -420.835
  C      116.571     556.423    -419.559
  O      117.381     558.213    -413.071
  O      114.873     558.725    -412.553
  H      117.946     557.425    -413.133
  H      120.922     556.070    -416.427
  H      118.108     553.957    -421.882
  H      115.478     557.170    -421.228
  H      116.153     557.133    -418.855
  H      118.041     554.467    -417.370
  H      119.900     556.339    -418.407
  H      118.487     558.223    -417.773
  H      118.009     556.733    -415.134
  H      117.206     559.112    -415.262
  H      116.208     558.673    -416.668
  P      120.570     559.500    -416.950
  C      123.068     558.967    -417.516
  O      121.706     558.824    -417.856
  O      121.375     560.168    -415.739
  O      119.640     560.433    -417.663
  H      121.778     559.514    -415.142
  H      123.639     558.176    -418.010
  H      123.214     558.883    -416.433
  H      123.436     559.938    -417.860
  H      114.703     554.660    -412.436
  H      114.145     555.653    -413.762
  H      113.903     556.180    -412.114

 3  4  5  6  7  8  9  10  11  12  13  24  28  29  30  31  32 0
 6-311+G(2d,p)
 ****
 33  34 0
 6-311+G(2d,p)
 ****
 1  2  14  15  16  17  18  19  20  21  22  23  25  26  27 0
 3-21G
 ****
 35  36  37  38  39  40  41  42  43  44  45 0
 3-21G
 ****


