%nproc=1
%NoSave
%Mem=1900MB
#P OB98/GEN NMR

erre ene a

0 1
  C     -310.791      18.621    -420.474
  O     -309.635      17.999    -420.995
  H     -310.480      19.469    -419.856
  H     -311.348      17.920    -419.849
  H     -311.429      18.992    -421.279
  P     -309.812      16.825    -422.074
  C     -307.970      17.363    -423.796
  O     -309.358      17.422    -423.492
  C     -307.592      18.519    -424.718
  O     -307.699      19.774    -424.007
  C     -306.155      18.460    -425.225
  O     -306.001      17.485    -426.238
  C     -305.951      19.897    -425.670
  O     -306.496      20.116    -426.978
  C     -306.748      20.685    -424.608
  N     -305.873      21.276    -423.594
  C     -305.386      22.549    -423.873
  O     -305.662      23.176    -424.897
  N     -304.511      23.065    -422.957
  C     -303.985      22.388    -421.892
  O     -303.026      22.795    -421.244
  C     -304.582      21.074    -421.614
  C     -305.476      20.581    -422.471
  O     -311.134      16.136    -422.067
  O     -308.621      15.811    -421.719
  H     -308.986      15.052    -421.225
  H     -306.004      19.515    -427.576
  H     -304.119      23.971    -423.172
  H     -304.244      20.536    -420.735
  H     -305.908      19.597    -422.303
  H     -307.328      21.484    -425.080
  H     -304.892      20.156    -425.704
  H     -305.480      18.247    -424.390
  H     -308.301      18.540    -425.556
  H     -307.759      16.412    -424.298
  H     -307.399      17.410    -422.862
  P     -305.524      16.003    -425.867
  C     -307.356      14.662    -427.074
  O     -306.817      15.055    -425.815
  O     -304.625      15.902    -424.679
  O     -304.774      15.496    -427.190
  H     -303.900      15.136    -426.938
  H     -308.209      14.036    -426.917
  H     -306.615      14.123    -427.627
  H     -307.648      15.532    -427.624

 6  7  8  9  10  11  12  13  14  15  16  27  31  32  33  34  35 0
 6-311+G(2d,p)
 ****
 36  37 0
 6-311+G(2d,p)
 ****
 1  2  3  4  5  17  18  19  20  21  22  23  24  25 0
 3-21G
 ****
 26  28  29  30  38  39  40  41  42  43  44  45 0
 3-21G
 ****


