%nproc=1
%NoSave
%Mem=1900MB
#P OB98/GEN NMR

erre ene a

0 1
  C       30.860     737.563     320.717
  O       29.657     737.101     321.349
  P       29.848     736.188     322.670
  C       27.539     736.722     323.757
  O       28.392     735.749     323.160
  C       26.135     736.171     323.947
  O       25.462     736.016     322.679
  C       26.086     734.779     324.586
  O       26.241     734.855     326.000
  C       24.685     734.339     324.219
  O       23.731     734.903     325.169
  C       24.472     734.972     322.817
  N       23.511     733.943     317.962
  C       23.140     735.023     318.718
  N       22.440     736.009     318.064
  N       23.443     735.174     319.977
  C       24.166     734.136     320.481
  C       24.585     732.995     319.815
  C       24.235     732.850     318.432
  O       24.500     731.894     317.717
  N       25.312     732.183     320.647
  C       25.354     732.822     321.801
  N       24.657     734.023     321.752
  O       30.297     737.258     323.788
  O       30.856     735.089     322.507
  H       23.877     734.445     326.030
  H       30.834     736.830     324.474
  H       23.259     733.894     316.977
  H       25.866     732.493     322.685
  H       23.482     735.425     322.738
  H       24.549     733.256     324.247
  H       22.248     736.000     317.091
  H       26.812     734.117     324.119
  H       22.206     736.831     318.615
  H       25.571     736.887     324.559
  H       27.505     737.616     323.137
  H       27.990     737.024     324.715
  P       27.740     734.667     326.578
  C       27.196     736.605     328.245
  O       27.689     735.293     328.048
  O       28.571     735.746     325.740
  O       28.292     733.305     326.442
  H       29.495     735.474     325.653
  H       26.283     736.762     327.636
  H       27.963     737.324     327.945
  H       26.945     736.746     329.299
  H       30.609     738.153     319.860
  H       31.448     736.723     320.412
  H       31.420     738.158     321.408

 3  4  5  6  7  8  9  10  11  12  23  26  30  31  33  0
 6-311+G(2d,p)
 ****
 35  36  37  38 0
 6-311+G(2d,p)
 ****
 1  2  13  14  15  16  17  18  19  20  21  22  24  25  27  28  29 0
 3-21G
 ****
 32  34  39  40  41  42  43  44  45  46  47  48  49 0
 3-21G
 ****


