%nproc=1
%NoSave
%Mem=1900MB
#P OB98/GEN NMR

erre ene a

0 1
  C      -93.003     -37.314     210.706
  O      -94.397     -37.543     210.805
  H      -92.616     -37.083     211.701
  H      -92.806     -36.466     210.045
  H      -92.502     -38.210     210.329
  P      -95.158     -37.924     209.442
  C      -94.992     -39.970     207.861
  O      -94.380     -39.222     208.908
  C      -94.022     -40.144     206.693
  O      -93.619     -38.862     206.178
  C      -92.731     -40.871     207.048
  O      -92.934     -42.277     207.067
  C      -91.838     -40.446     205.894
  O      -92.140     -41.238     204.728
  C      -92.266     -38.986     205.657
  N      -87.838     -36.395     205.411
  C      -88.305     -37.451     204.704
  N      -89.470     -38.113     204.853
  C      -90.193     -37.586     205.854
  C      -89.852     -36.507     206.660
  C      -88.614     -35.895     206.402
  N      -88.151     -34.811     207.118
  N      -90.845     -36.251     207.583
  C      -91.793     -37.123     207.303
  N      -91.431     -37.975     206.289
  O      -95.338     -36.810     208.469
  O      -96.515     -38.552     210.017
  H      -91.802     -40.756     203.948
  H      -96.337     -39.080     210.814
  H      -87.650     -37.810     203.914
  H      -92.761     -37.166     207.791
  H      -92.302     -38.740     204.591
  H      -90.780     -40.592     206.112
  H      -92.307     -40.499     207.986
  H      -94.558     -40.664     205.888
  H      -95.903     -39.473     207.518
  H      -87.187     -34.543     206.985
  H      -88.671     -34.519     207.934
  H      -95.264     -40.948     208.273
  P      -92.141     -43.201     208.114
  C      -92.472     -43.759     210.603
  O      -92.670     -42.794     209.574
  O      -90.658     -43.193     207.967
  O      -92.750     -44.662     207.901
  H      -92.050     -45.339     207.975
  H      -92.861     -43.382     211.526
  H      -91.426     -43.956     210.711
  H      -92.980     -44.665     210.345

 6  7  8  9  10  11  12  13  14  15  25  28  32  33  34  35 0
 6-311+G(2d,p)
 ****
 36  39  40 0
 6-311+G(2d,p)
 ****
 1  2  3  4  5  16  17  18  19  20  21  22  23  24 0
 3-21G
 ****
 26  27  29  30  31  37  38  41  42  43  44  45  46  47 0
 3-21G
 ****
 48 0
 3-21G
 ****


