%nproc=1
%NoSave
%Mem=1900MB
#P OB98/GEN NMR

erre ene a

0 1
  C      470.270     589.067     305.242
  O      469.913     590.255     304.565
  H      469.441     588.744     305.878
  H      470.467     588.284     304.502
  H      471.168     589.217     305.846
  P      469.870     591.608     305.428
  C      467.332     592.071     305.149
  O      468.382     591.714     306.031
  C      466.115     592.567     305.937
  O      465.508     591.430     306.608
  C      466.445     593.626     307.004
  O      465.388     594.596     307.022
  C      466.411     592.833     308.301
  O      466.119     593.648     309.432
  C      465.335     591.802     307.989
  N      464.462     590.148     312.720
  C      464.004     591.220     312.039
  N      464.244     591.563     310.762
  C      464.991     590.618     310.148
  C      465.525     589.468     310.708
  C      465.247     589.251     312.065
  N      465.757     588.199     312.783
  N      466.280     588.789     309.771
  C      466.223     589.526     308.680
  N      465.460     590.649     308.861
  O      469.894     592.741     304.296
  O      470.976     591.779     306.414
  H      466.772     594.380     309.470
  H      470.817     592.955     304.066
  H      463.373     591.902     312.607
  H      466.743     589.320     307.761
  H      464.318     592.200     308.117
  H      467.386     592.352     308.458
  H      467.405     594.127     306.846
  H      465.377     592.953     305.223
  H      467.039     591.190     304.561
  H      465.594     588.179     313.779
  H      466.429     587.585     312.342
  H      467.682     592.850     304.461
  P      465.692     596.032     306.372
  C      465.406     597.827     308.237
  O      466.299     596.989     307.504
  O      464.233     596.631     306.118
  O      466.489     595.964     305.105
  H      464.232     597.195     305.326
  H      465.960     598.401     308.950
  H      464.687     597.221     308.748
  H      464.902     598.487     307.563

 6  7  8  9  10  11  12  13  14  15  25  28  32  33  34  35 0
 6-311+G(2d,p)
 ****
 36  39  40 0
 6-311+G(2d,p)
 ****
 1  2  3  4  5  16  17  18  19  20  21  22  23  24 0
 3-21G
 ****
 26  27  29  30  31  37  38  41  42  43  44  45  46  47 0
 3-21G
 ****
 48 0
 3-21G
 ****


