%nproc=1
%NoSave
%Mem=1900MB
#P OB98/GEN NMR

erre ene a

0 1
  C     -225.242     -23.554    -196.231
  O     -224.301     -24.420    -195.629
  H     -225.569     -22.819    -195.490
  H     -226.113     -24.122    -196.570
  H     -224.789     -23.028    -197.076
  P     -223.662     -25.555    -196.567
  C     -221.927     -23.783    -197.352
  O     -222.867     -24.783    -197.729
  C     -220.528     -24.388    -197.291
  O     -220.228     -25.036    -198.548
  C     -219.412     -23.369    -197.080
  O     -219.303     -22.976    -195.723
  C     -218.204     -24.143    -197.588
  O     -217.674     -25.014    -196.581
  C     -218.796     -24.969    -198.738
  N     -215.212     -24.579    -202.342
  C     -215.255     -25.270    -201.183
  N     -216.261     -25.336    -200.282
  C     -217.305     -24.594    -200.688
  C     -217.402     -23.829    -201.838
  C     -216.291     -23.839    -202.695
  N     -216.232     -23.106    -203.857
  N     -218.616     -23.172    -201.881
  C     -219.244     -23.538    -200.782
  N     -218.490     -24.399    -200.033
  O     -224.942     -26.158    -197.320
  O     -222.883     -26.609    -195.853
  H     -217.268     -24.441    -195.902
  H     -225.260     -26.946    -196.842
  H     -214.364     -25.845    -200.943
  H     -220.230     -23.203    -200.481
  H     -218.423     -26.001    -198.740
  H     -217.399     -23.469    -197.891
  H     -219.571     -22.496    -197.724
  H     -220.510     -25.151    -196.502
  H     -222.194     -23.390    -196.365
  H     -221.965     -22.970    -198.085
  H     -215.391     -23.144    -204.412
  H     -216.989     -22.469    -204.076
  P     -218.699     -21.532    -195.390
  C     -220.965     -20.345    -194.917
  O     -219.818     -20.441    -195.751
  O     -217.589     -21.328    -196.528
  O     -218.123     -21.397    -194.018
  H     -216.702     -21.518    -196.174
  H     -221.612     -19.577    -195.287
  H     -220.662     -20.105    -193.919
  H     -221.485     -21.280    -194.917

 6  7  8  9  10  11  12  13  14  15  25  28  32  33  34  35 0
 6-311+G(2d,p)
 ****
 36  37  40 0
 6-311+G(2d,p)
 ****
 1  2  3  4  5  16  17  18  19  20  21  22  23  24 0
 3-21G
 ****
 26  27  29  30  31  38  39 41  42  43  44  45  46  47  48 0
 3-21G
 ****


