%nproc=1
%NoSave
%Mem=1900MB
#P OB98/GEN NMR

erre ene a

0 1
  C     -281.088     119.573    -118.256
  O     -280.460     118.764    -119.257
  P     -279.440     117.628    -118.759
  C     -278.642     115.423    -119.931
  O     -279.078     116.770    -120.064
  C     -278.541     114.770    -121.306
  O     -279.859     114.491    -121.840
  C     -277.857     115.632    -122.360
  O     -276.451     115.671    -122.160
  C     -278.302     114.939    -123.639
  O     -277.494     113.774    -123.887
  C     -279.744     114.509    -123.281
  N     -280.759     115.359    -123.888
  C     -281.381     114.847    -125.023
  O     -281.091     113.758    -125.517
  N     -282.344     115.644    -125.591
  C     -282.708     116.887    -125.159
  O     -283.584     117.549    -125.701
  C     -281.980     117.394    -123.986
  C     -281.055     116.621    -123.412
  O     -280.419     116.684    -117.920
  O     -278.281     118.179    -117.998
  H     -281.313     116.628    -118.296
  H     -277.898     113.317    -124.649
  H     -282.816     115.283    -126.405
  H     -282.230     118.390    -123.631
  H     -280.504     116.982    -122.548
  H     -279.925     113.477    -123.615
  H     -278.224     115.585    -124.517
  H     -278.263     116.650    -122.328
  H     -278.007     113.815    -121.193
  H     -279.353     114.862    -119.318
  H     -277.679     115.412    -119.415
  P     -275.768     117.127    -122.106
  C     -273.282     117.935    -122.000
  O     -274.193     116.895    -122.282
  O     -275.940     117.492    -120.557
  O     -276.384     118.111    -123.044
  H     -275.720     116.753    -119.964
  H     -272.292     117.503    -121.838
  H     -273.573     118.488    -121.104
  H     -273.233     118.619    -122.850
  H     -281.737     120.282    -118.726
  H     -280.339     120.092    -117.695
  H     -281.658     118.949    -117.599

 3  4  5  6  7  8  9  10  11  12  13  24  28  29  30  31  32 0
 6-311+G(2d,p)
 ****
 33  34 0
 6-311+G(2d,p)
 ****
 1  2  14  15  16  17  18  19  20  21  22  23  25  26  27 0
 3-21G
 ****
 35  36  37  38  39  40  41  42  43  44  45 0
 3-21G
 ****


