%nproc=1
%NoSave
%Mem=1900MB
#P OB98/GEN NMR

erre ene a

0 1
  C       62.085    -184.490    -129.338
  O       62.111    -183.680    -128.182
  P       63.167    -182.486    -128.017
  C       65.592    -182.182    -127.245
  O       64.554    -183.119    -127.522
  C       66.971    -182.776    -127.539
  O       67.047    -183.142    -128.948
  C       68.144    -181.833    -127.233
  O       69.200    -182.630    -126.699
  C       68.518    -181.301    -128.608
  O       69.851    -180.810    -128.646
  C       68.240    -182.531    -129.477
  N       68.079    -182.191    -130.885
  C       69.144    -181.527    -131.497
  O       70.105    -181.146    -130.826
  N       69.086    -181.312    -132.855
  C       67.986    -181.554    -133.497
  N       67.992    -181.390    -134.848
  C       66.752    -182.027    -132.825
  C       66.878    -182.356    -131.542
  O       62.690    -181.323    -127.212
  O       63.489    -182.045    -129.529
  H       63.353    -181.081    -129.612
  H       69.883    -179.954    -128.175
  H       65.827    -182.089    -133.374
  H       66.040    -182.733    -130.970
  H       69.054    -183.259    -129.384
  H       67.840    -180.475    -128.879
  H       67.878    -181.048    -126.516
  H       67.074    -183.708    -126.959
  H       68.865    -181.109    -135.276
  H       65.537    -181.923    -126.187
  H       67.309    -181.848    -135.449
  H       65.438    -181.270    -127.827
  P       70.716    -182.236    -127.071
  C       72.202    -182.308    -129.198
  O       70.906    -182.437    -128.647
  O       71.530    -183.491    -126.470
  O       71.242    -180.966    -126.476
  H       72.449    -183.212    -126.274
  H       72.131    -182.406    -130.283
  H       72.864    -183.101    -128.816
  H       72.628    -181.327    -128.962
  H       61.309    -185.221    -129.244
  H       63.028    -184.983    -129.449
  H       61.898    -183.880    -130.197

 3  4  5  6  7  8  9  10  11  12  13  24  27  28  29  30  32 0
 6-311+G(2d,p)
 ****
 34  35 0
 6-311+G(2d,p)
 ****
 1  2  14  15  16  17  18  19  20  21  22  23  25  26 0
 3-21G
 ****
 31  33  36  37  38  39  40  41  42  43  44  45  46 0
 3-21G
 ****


