%nproc=1
%NoSave
%Mem=1900MB
#P OB98/GEN NMR

erre ene a

0 1
  C       50.350      58.132      27.347
  O       51.353      59.099      27.580
  H       49.803      58.406      26.441
  H       49.646      58.093      28.182
  H       50.803      57.148      27.195
  P       52.201      59.021      28.937
  C       51.365      60.698      30.704
  O       51.194      59.411      30.125
  C       50.025      61.257      31.188
  O       49.542      60.420      32.273
  C       50.111      62.700      31.699
  O       48.916      63.383      31.317
  C       50.163      62.516      33.202
  O       49.719      63.673      33.882
  C       49.298      61.269      33.409
  N       49.624      60.603      34.670
  C       48.790      60.882      35.758
  O       47.829      61.643      35.625
  N       49.097      60.352      36.983
  C       50.175      59.648      37.128
  N       50.441      59.184      38.379
  C       51.100      59.350      36.017
  C       50.766      59.851      34.827
  O       53.495      59.763      28.947
  O       52.424      57.450      29.151
  H       48.926      64.033      33.429
  H       53.256      57.169      28.727
  H       51.988      58.763      36.190
  H       51.391      59.694      33.956
  H       48.232      61.529      33.415
  H       51.197      62.316      33.513
  H       50.987      63.236      31.322
  H       49.298      61.171      30.372
  H       49.792      59.435      39.115
  H       51.782      61.359      29.937
  H       51.269      58.663      38.623
  H       52.070      60.639      31.539
  P       48.973      64.620      30.297
  C       49.220      66.483      32.034
  O       49.845      65.801      30.952
  O       47.647      65.051      29.762
  O       49.911      64.090      29.107
  H       49.643      64.518      28.272
  H       49.875      67.246      32.400
  H       49.008      65.788      32.819
  H       48.308      66.928      31.696

 6  7  8  9  10  11  12  13  14  15  16  26  30  31  32  33  35 0
 6-311+G(2d,p)
 ****
 37  38 0
 6-311+G(2d,p)
 ****
 1  2  3  4  5  17  18  19  20  21  22  23  24  25 0
 3-21G
 ****
 27  28  29  34  36  39  40  41  42  43  44  45  46 0
 3-21G
 ****


