%nproc=1
%NoSave
%Mem=1900MB
#P OB98/GEN NMR

erre ene a

0 1
  C      215.203      81.720     169.902
  O      216.338      81.455     170.699
  H      215.096      82.800     169.792
  H      214.305      81.327     170.387
  H      215.312      81.275     168.907
  P      216.832      79.940     170.869
  C      218.584      78.562     169.566
  O      218.240      79.828     170.112
  C      219.816      78.681     168.660
  O      219.481      79.540     167.527
  C      221.050      79.303     169.348
  O      222.210      78.733     168.719
  C      220.879      80.765     168.972
  O      222.025      81.533     169.247
  C      220.460      80.599     167.502
  N      219.915      81.793     166.869
  C      220.498      82.224     165.682
  O      221.442      81.660     165.126
  N      219.960      83.356     165.128
  C      218.908      84.073     165.624
  O      218.449      85.063     165.067
  C      218.339      83.573     166.885
  C      218.851      82.475     167.442
  O      215.835      78.889     170.510
  O      217.251      79.853     172.413
  H      216.547      79.400     172.918
  H      222.769      81.199     168.704
  H      220.365      83.677     164.260
  H      217.511      84.124     167.314
  H      218.450      82.076     168.367
  H      221.312      80.239     166.913
  H      220.070      81.210     169.560
  H      221.086      79.111     170.421
  H      220.051      77.690     168.251
  H      217.734      78.198     168.982
  H      218.785      77.862     170.382
  P      223.171      77.673     169.437
  C      222.921      75.403     170.670
  O      222.263      76.446     169.955
  O      224.046      78.261     170.499
  O      224.049      77.029     168.266
  H      224.895      76.706     168.622
  H      222.206      74.659     170.953
  H      223.381      75.807     171.547
  H      223.669      74.960     170.047

 6  7  8  9  10  11  12  13  14  15  16  27  31  32  33  34  35 0
 6-311+G(2d,p)
 ****
 36  37 0
 6-311+G(2d,p)
 ****
 1  2  3  4  5  17  18  19  20  21  22  23  24  25 0
 3-21G
 ****
 26  28  29  30  38  39  40  41  42  43  44  45 0
 3-21G
 ****


