%nproc=1
%NoSave
%Mem=1900MB
#P OB98/GEN NMR

erre ene a

0 1
  C      213.858    -632.031       4.335
  O      212.941    -631.656       3.318
  P      213.392    -631.645       1.775
  C      211.456    -629.959       1.614
  O      212.128    -631.040       0.980
  C      210.159    -629.639       0.855
  O      210.514    -629.207      -0.479
  C      209.185    -630.804       0.667
  O      208.313    -631.037       1.761
  C      208.376    -630.293      -0.524
  O      207.391    -629.346      -0.071
  C      209.442    -629.617      -1.375
  N      209.209    -630.845      -6.340
  C      208.568    -629.909      -5.608
  N      208.672    -629.657      -4.287
  C      209.592    -630.460      -3.714
  C      210.326    -631.463      -4.330
  C      210.112    -631.648      -5.713
  N      210.781    -632.582      -6.463
  N      211.149    -632.089      -3.418
  C      210.907    -631.470      -2.271
  N      209.982    -630.475      -2.412
  O      213.915    -632.947       1.270
  O      214.463    -630.464       1.686
  H      206.676    -629.845       0.372
  H      214.989    -630.554       0.862
  H      207.875    -629.278      -6.163
  H      211.384    -631.714      -1.331
  H      209.063    -628.695      -1.858
  H      207.818    -631.095      -1.031
  H      209.719    -631.725       0.372
  H      209.664    -628.800       1.369
  H      212.105    -629.087       1.598
  H      210.670    -632.555      -7.454
  H      211.571    -633.061      -6.024
  H      211.240    -630.210       2.663
  P      208.196    -632.558       2.286
  C      205.713    -632.292       3.104
  O      207.068    -632.534       3.441
  O      209.485    -633.194       2.668
  O      207.451    -633.294       1.072
  H      206.539    -633.019       0.910
  H      205.099    -632.477       3.994
  H      205.381    -632.978       2.310
  H      205.576    -631.267       2.784
  H      213.375    -631.976       5.288
  H      214.697    -631.367       4.321
  H      214.193    -633.032       4.162

 3  4  5  6  7  8  9  10  11  12  22  25  29  30  31  32 0
 6-311+G(2d,p)
 ****
 33  36  37 0
 6-311+G(2d,p)
 ****
 1  2  13  14  15  16  17  18  19  20  21  23  24  26 0
 3-21G
 ****
 27  28  34  35  38  39  40  41  42  43  44  45  46  47  48 0
 3-21G
 ****


