%nproc=1
%NoSave
%Mem=1900MB
#P OB98/GEN NMR

erre ene a

0 1
  C      224.248     603.410    -932.224
  O      223.899     604.004    -933.462
  H      225.336     603.385    -932.143
  H      223.877     602.382    -932.191
  H      223.842     603.993    -931.403
  P      222.356     604.134    -933.873
  C      222.356     606.399    -935.089
  O      222.342     604.982    -935.245
  C      222.747     607.102    -936.394
  O      224.085     606.661    -936.780
  C      221.804     606.805    -937.556
  O      221.470     608.021    -938.233
  C      222.633     605.917    -938.492
  O      222.195     605.962    -939.842
  C      224.050     606.468    -938.213
  N      225.084     605.551    -938.679
  C      225.112     605.332    -940.073
  O      224.309     605.902    -940.804
  N      226.036     604.451    -940.555
  C      226.809     603.791    -939.755
  N      227.671     602.906    -940.311
  C      226.792     603.982    -938.294
  C      225.908     604.861    -937.816
  O      221.464     604.654    -932.797
  O      221.941     602.663    -934.370
  H      222.126     606.909    -940.113
  H      220.959     602.567    -934.304
  H      227.440     603.398    -937.651
  H      225.810     605.066    -936.758
  H      224.187     607.435    -938.696
  H      222.572     604.876    -938.133
  H      220.883     606.299    -937.249
  H      222.829     608.181    -936.200
  H      227.653     602.801    -941.335
  H      223.055     606.661    -934.278
  H      228.301     602.311    -939.782
  H      221.350     606.731    -934.803
  P      220.070     608.691    -937.832
  C      220.762     611.105    -938.527
  O      219.870     610.015    -938.719
  O      220.365     609.284    -936.353
  O      218.919     607.749    -937.803
  H      219.873     608.770    -935.682
  H      220.497     611.904    -939.188
  H      221.763     610.788    -938.734
  H      220.698     611.444    -937.514

 6  7  8  9  10  11  12  13  14  15  16  26  30  31  32  33  35 0
 6-311+G(2d,p)
 ****
 37  38 0
 6-311+G(2d,p)
 ****
 1  2  3  4  5  17  18  19  20  21  22  23  24  25 0
 3-21G
 ****
 27  28  29  34  36  39  40  41  42  43  44  45  46 0
 3-21G
 ****


