%nproc=1
%NoSave
%Mem=1900MB
#P OB98/GEN NMR

erre ene a

0 1
  C      412.931     393.180    -221.891
  O      413.931     392.921    -222.856
  H      413.320     392.910    -220.904
  H      412.039     392.580    -222.089
  H      412.673     394.243    -221.886
  P      413.582     393.159    -224.401
  C      414.567     395.552    -224.367
  O      413.417     394.741    -224.589
  C      415.156     396.022    -225.695
  O      415.410     394.897    -226.558
  C      414.246     396.956    -226.484
  O      414.243     398.250    -225.915
  C      414.873     396.851    -227.864
  O      416.058     397.657    -227.957
  C      415.229     395.346    -227.922
  N      414.230     394.534    -228.608
  C      414.709     393.407    -229.282
  O      415.914     393.150    -229.287
  N      413.810     392.611    -229.947
  C      412.545     392.885    -229.909
  N      411.705     392.055    -230.580
  C      411.994     394.046    -229.181
  C      412.884     394.826    -228.569
  O      412.450     392.348    -224.955
  O      414.957     392.846    -225.158
  H      416.368     397.572    -228.880
  H      414.977     391.918    -225.459
  H      410.932     394.232    -229.165
  H      412.564     395.697    -228.012
  H      416.192     395.200    -228.431
  H      414.198     397.187    -228.653
  H      413.233     396.543    -226.534
  H      416.123     396.500    -225.485
  H      412.128     391.258    -231.052
  H      415.296     394.934    -223.829
  H      410.702     392.077    -230.489
  H      414.317     396.415    -223.738
  P      413.146     399.342    -226.326
  C      411.267     399.152    -224.581
  O      411.733     398.740    -225.855
  O      413.197     399.789    -227.745
  O      413.381     400.526    -225.274
  H      414.177     401.058    -225.527
  H      410.324     398.689    -224.379
  H      411.151     400.216    -224.570
  H      411.974     398.863    -223.832

 6  7  8  9  10  11  12  13  14  15  16  26  30  31  32  33  35 0
 6-311+G(2d,p)
 ****
 37  38 0
 6-311+G(2d,p)
 ****
 1  2  3  4  5  17  18  19  20  21  22  23  24  25 0
 3-21G
 ****
 27  28  29  34  36  39  40  41  42  43  44  45  46 0
 3-21G
 ****


