%nproc=1
%NoSave
%Mem=1900MB
#P OB98/GEN NMR

erre ene a

0 1
  C      435.359     198.350    -123.601
  O      436.588     198.246    -122.873
  P      437.480     199.546    -122.529
  C      439.395     199.563    -124.242
  O      438.152     200.136    -123.867
  C      440.073     200.281    -125.412
  O      439.317     200.092    -126.643
  C      440.237     201.799    -125.236
  O      441.430     202.153    -125.944
  C      439.015     202.346    -125.949
  O      439.123     203.720    -126.297
  C      438.934     201.397    -127.133
  N      435.700     203.729    -130.360
  C      437.017     203.903    -130.122
  N      437.815     203.223    -129.275
  C      437.142     202.237    -128.666
  C      435.799     201.925    -128.816
  C      435.055     202.730    -129.701
  N      433.702     202.580    -129.910
  N      435.445     200.857    -128.002
  C      436.557     200.552    -127.367
  N      437.611     201.346    -127.733
  O      438.442     199.336    -121.406
  O      436.405     200.662    -122.127
  H      439.883     203.813    -126.909
  H      436.704     201.118    -121.316
  H      437.486     204.713    -130.677
  H      436.654     199.773    -126.615
  H      439.648     201.682    -127.916
  H      438.135     202.241    -125.282
  H      440.295     202.106    -124.183
  H      441.051     199.812    -125.575
  H      439.230     198.506    -124.514
  H      433.242     203.266    -130.491
  H      433.184     201.932    -129.339
  H      440.062     199.576    -123.369
  P      442.816     202.434    -125.190
  C      441.778     204.680    -124.528
  O      442.518     203.546    -124.074
  O      443.974     202.726    -126.089
  O      443.074     201.108    -124.317
  H      444.009     201.052    -124.074
  H      442.430     205.345    -125.110
  H      441.390     205.223    -123.648
  H      440.931     204.368    -125.139
  H      434.931     197.376    -123.719
  H      435.550     198.775    -124.564
  H      434.678     198.976    -123.063

 3  4  5  6  7  8  9  10  11  12  22  25  29  30  31  32 0
 6-311+G(2d,p)
 ****
 33  36  37 0
 6-311+G(2d,p)
 ****
 1  2  13  14  15  16  17  18  19  20  21  23  24  26 0
 3-21G
 ****
 27  28  34  35  38  39  40  41  42  43  44  45  46  47  48 0
 3-21G
 ****


