%nproc=1
%NoSave
%Mem=1900MB
#P OB98/GEN NMR

erre ene a

0 1
  C      108.780     -83.135     -11.526
  O      109.553     -83.431     -12.673
  H      107.740     -82.973     -11.819
  H      108.823     -83.989     -10.845
  H      109.167     -82.250     -11.012
  P      109.882     -82.218     -13.671
  C      110.689     -82.084     -16.138
  O      110.067     -82.869     -15.131
  C      111.325     -82.978     -17.203
  O      112.401     -83.740     -16.578
  C      110.354     -83.984     -17.847
  O      110.673     -84.089     -19.240
  C      110.707     -85.296     -17.157
  O      110.377     -86.432     -17.949
  C      112.202     -85.121     -16.928
  N      112.549     -90.004     -15.541
  C      112.306     -89.423     -16.733
  N      112.283     -88.105     -17.028
  C      112.617     -87.367     -15.952
  C      112.905     -87.823     -14.671
  C      112.838     -89.215     -14.478
  N      113.019     -89.814     -13.252
  N      113.144     -86.755     -13.829
  C      112.983     -85.681     -14.576
  N      112.663     -86.004     -15.866
  O      111.378     -81.820     -13.246
  O      108.951     -81.055     -13.599
  H      110.868     -87.206     -17.610
  H      111.348     -81.172     -12.520
  H      112.086     -90.095     -17.556
  H      113.057     -84.657     -14.231
  H      112.801     -85.339     -17.820
  H      110.162     -85.367     -16.209
  H      109.301     -83.717     -17.728
  H      111.786     -82.340     -17.964
  H      111.467     -81.467     -15.677
  H      112.854     -90.809     -13.185
  H      113.126     -89.235     -12.434
  H      109.945     -81.424     -16.596
  P      109.600     -83.518     -20.285
  C      109.717     -83.483     -22.893
  O      109.824     -84.249     -21.697
  O      110.109     -82.026     -20.559
  O      108.192     -83.544     -19.781
  H      109.350     -81.439     -20.729
  H      109.893     -84.115     -23.738
  H      110.442     -82.696     -22.879
  H      108.736     -83.062     -22.960

 6  7  8  9  10  11  12  13  14  15  25  28  32  33  34  35 0
 6-311+G(2d,p)
 ****
 36  39  40 0
 6-311+G(2d,p)
 ****
 1  2  3  4  5  16  17  18  19  20  21  22  23  24 0
 3-21G
 ****
 26  27  29  30  31  37  38  41  42  43  44  45  46  47 0
 3-21G
 ****
 48 0
 3-21G
 ****


