%nproc=1
%NoSave
%Mem=1900MB
#P OB98/GEN NMR

erre ene a

0 1
  C     -114.292    -314.965    -498.000
  O     -115.301    -315.415    -497.102
  P     -116.779    -315.625    -497.694
  C     -116.626    -318.215    -497.951
  O     -116.732    -316.954    -498.602
  C     -118.002    -318.853    -497.762
  O     -118.631    -319.011    -499.069
  C     -117.981    -320.233    -497.084
  O     -119.162    -320.330    -496.291
  C     -118.058    -321.167    -498.291
  O     -118.434    -322.500    -497.967
  C     -119.030    -320.393    -499.177
  N     -121.558    -320.422    -503.632
  C     -121.830    -319.833    -502.443
  N     -121.109    -319.862    -501.303
  C     -119.983    -320.587    -501.468
  C     -119.581    -321.258    -502.608
  C     -120.425    -321.158    -503.734
  N     -120.147    -321.762    -504.949
  N     -118.385    -321.916    -502.403
  C     -118.073    -321.645    -501.150
  N     -119.000    -320.835    -500.554
  O     -116.914    -314.448    -498.766
  O     -117.881    -315.589    -496.673
  H     -118.468    -323.049    -498.773
  H     -117.813    -314.070    -498.764
  H     -122.756    -319.264    -502.395
  H     -117.199    -322.028    -500.633
  H     -120.069    -320.478    -498.820
  H     -117.066    -321.225    -498.757
  H     -117.107    -320.399    -496.451
  H     -118.628    -318.155    -497.177
  H     -116.168    -318.077    -496.959
  H     -120.908    -321.795    -505.621
  H     -119.416    -322.469    -504.955
  H     -115.961    -318.870    -498.535
  P     -119.114    -321.181    -494.928
  C     -118.433    -319.130    -493.522
  O     -118.036    -320.392    -494.014
  O     -118.271    -322.460    -495.392
  O     -120.435    -321.494    -494.310
  H     -117.445    -322.197    -495.846
  H     -117.656    -318.758    -492.850
  H     -119.377    -319.216    -492.964
  H     -118.552    -318.426    -494.351
  H     -113.364    -314.869    -497.475
  H     -114.573    -314.015    -498.405
  H     -114.181    -315.672    -498.795

 3  4  5  6  7  8  9  10  11  12  22  25  29  30  31  32 0
 6-311+G(2d,p)
 ****
 33  36  37 0
 6-311+G(2d,p)
 ****
 1  2  13  14  15  16  17  18  19  20  21  23  24  26 0
 3-21G
 ****
 27  28  34  35  38  39  40  41  42  43  44  45  46  47  48 0
 3-21G
 ****


