%nproc=1
%NoSave
%Mem=1900MB
#P OB98/GEN NMR

erre ene a

0 1
  C     -182.054     408.293     114.969
  O     -181.164     407.619     115.841
  P     -179.771     408.281     116.271
  C     -178.760     408.156     113.919
  O     -179.152     409.008     114.983
  C     -177.260     407.852     113.963
  O     -176.913     406.961     112.869
  C     -176.366     409.097     113.849
  O     -175.248     408.899     114.722
  C     -175.924     409.080     112.398
  O     -174.732     409.815     112.185
  C     -175.813     407.565     112.154
  N     -175.849     407.229     110.744
  C     -174.666     407.436     110.017
  O     -173.708     408.002     110.541
  N     -174.615     407.004     108.716
  C     -175.698     406.582     108.138
  N     -175.590     406.107     106.863
  C     -177.016     406.587     108.798
  C     -177.012     406.880     110.097
  O     -178.828     407.360     116.975
  O     -180.185     409.504     117.214
  H     -179.704     409.436     118.059
  H     -174.066     409.542     112.852
  H     -177.916     406.351     108.240
  H     -177.925     406.880     110.688
  H     -174.889     407.170     112.597
  H     -176.712     409.507     111.767
  H     -176.885     410.020     114.138
  H     -177.048     407.321     114.896
  H     -174.662     406.077     106.457
  H     -178.993     408.659     112.980
  H     -176.289     405.478     106.463
  H     -179.342     407.225     113.948
  P     -174.513     410.187     115.334
  C     -172.517     410.176     113.664
  O     -173.649     410.866     114.162
  O     -173.374     409.513     116.241
  O     -175.354     411.103     116.172
  H     -173.121     410.137     116.951
  H     -172.017     410.811     112.929
  H     -172.826     409.250     113.179
  H     -171.818     409.961     114.478
  H     -182.921     407.688     114.807
  H     -181.567     408.476     114.034
  H     -182.346     409.224     115.408

 3  4  5  6  7  8  9  10  11  12  13  24  27  28  29  30  32 0
 6-311+G(2d,p)
 ****
 34  35 0
 6-311+G(2d,p)
 ****
 1  2  14  15  16  17  18  19  20  21  22  23  25  26 0
 3-21G
 ****
 31  33  36  37  38  39  40  41  42  43  44  45  46 0
 3-21G
 ****


