%nproc=1
%NoSave
%Mem=1900MB
#P OB98/GEN NMR

erre ene a

0 1
  C       41.283     563.922     485.841
  O       41.809     562.898     486.656
  H       40.252     564.128     486.151
  H       41.278     563.605     484.792
  H       41.872     564.839     485.948
  P       43.327     562.463     486.376
  C       43.659     560.206     485.127
  O       43.301     561.582     485.036
  C       42.490     559.406     485.683
  O       41.273     559.758     484.965
  C       42.629     557.898     485.516
  O       43.494     557.331     486.485
  C       41.189     557.445     485.655
  O       40.801     557.314     487.030
  C       40.408     558.592     484.990
  N       36.402     557.306     482.094
  C       36.501     557.659     483.390
  N       37.611     558.008     484.082
  C       38.696     557.976     483.286
  C       38.746     557.629     481.953
  C       37.527     557.283     481.348
  N       37.429     556.887     480.029
  N       40.047     557.675     481.492
  C       40.774     558.051     482.529
  N       39.988     558.254     483.636
  O       43.617     561.399     487.531
  O       44.321     563.577     486.386
  H       40.635     558.215     487.348
  H       44.118     561.820     488.254
  H       35.569     557.674     483.946
  H       41.844     558.193     482.532
  H       39.513     558.864     485.549
  H       41.035     556.484     485.170
  H       42.990     557.659     484.500
  H       42.343     559.676     486.735
  H       44.526     560.093     485.794
  H       43.939     559.841     484.128
  H       36.548     556.591     479.677
  H       38.286     556.759     479.488
  P       44.395     556.075     486.043
  C       43.507     553.817     487.025
  O       43.437     554.802     485.989
  O       45.324     555.803     487.319
  O       45.203     556.297     484.812
  H       46.209     555.508     487.031
  H       42.798     553.040     486.827
  H       43.283     554.273     487.967
  H       44.492     553.401     487.056

 6  7  8  9  10  11  12  13  14  15  25  28  32  33  34  35 0
 6-311+G(2d,p)
 ****
 36  37  40 0
 6-311+G(2d,p)
 ****
 1  2  3  4  5  16  17  18  19  20  21  22  23  24 0
 3-21G
 ****
 26  27  29  30  31  38  39 41  42  43  44  45  46  47  48 0
 3-21G
 ****


