%nproc=1
%NoSave
%Mem=1900MB
#P OB98/GEN NMR

erre ene a

0 1
  C     -219.863     197.135    -111.359
  O     -220.366     197.030    -112.677
  H     -220.264     198.044    -110.904
  H     -218.772     197.195    -111.361
  H     -220.187     196.275    -110.767
  P     -219.711     195.935    -113.651
  C     -218.122     197.766    -114.532
  O     -218.223     196.468    -113.953
  C     -216.865     197.893    -115.392
  O     -215.678     197.696    -114.595
  C     -216.764     196.858    -116.501
  O     -217.731     196.985    -117.518
  C     -215.289     196.932    -116.865
  O     -215.002     198.006    -117.760
  C     -214.647     197.208    -115.483
  N     -213.977     196.031    -114.938
  C     -212.601     196.133    -114.777
  O     -211.952     197.133    -115.089
  N     -211.977     195.025    -114.273
  C     -212.577     193.838    -113.965
  O     -211.954     192.874    -113.535
  C     -214.029     193.778    -114.193
  C     -214.656     194.861    -114.659
  O     -220.501     195.610    -114.884
  O     -219.457     194.676    -112.697
  H     -215.672     197.971    -118.470
  H     -219.286     193.858    -113.225
  H     -210.979     195.086    -114.134
  H     -214.534     192.848    -113.972
  H     -215.729     194.840    -114.834
  H     -213.903     198.011    -115.565
  H     -214.934     196.013    -117.338
  H     -216.924     195.865    -116.061
  H     -216.829     198.911    -115.793
  H     -218.074     198.494    -113.714
  H     -219.014     197.968    -115.134
  P     -218.661     195.789    -118.013
  C     -217.140     195.033    -120.001
  O     -217.743     194.703    -118.756
  O     -219.957     196.165    -118.652
  O     -219.002     195.040    -116.620
  H     -219.910     194.688    -116.700
  H     -216.567     194.200    -120.352
  H     -216.498     195.879    -119.873
  H     -217.902     195.268    -120.715

 6  7  8  9  10  11  12  13  14  15  16  26  31  32  33  34  35 0
 6-311+G(2d,p)
 ****
 36  37 0
 6-311+G(2d,p)
 ****
 1  2  3  4  5  17  18  19  20  21  22  23  24  25 0
 3-21G
 ****
 27  28  29  30  38  39  40  41  42  43  44  45 0
 3-21G
 ****


