%nproc=1
%NoSave
%Mem=1900MB
#P OB98/GEN NMR

erre ene a

0 1
  C     -819.971     -25.332     222.039
  O     -821.156     -24.843     221.446
  H     -820.221     -26.200     222.654
  H     -819.526     -24.566     222.678
  H     -819.253     -25.642     221.274
  P     -821.058     -23.626     220.406
  C     -822.529     -25.025     218.832
  O     -822.323     -23.756     219.425
  C     -823.835     -25.652     219.328
  O     -823.713     -25.909     220.754
  C     -825.064     -24.754     219.115
  O     -826.171     -25.583     218.769
  C     -825.292     -24.143     220.485
  O     -826.657     -23.775     220.690
  C     -824.815     -25.261     221.414
  N     -826.499     -23.573     225.867
  C     -827.192     -24.101     224.796
  N     -828.532     -24.172     224.915
  N     -826.615     -24.525     223.698
  C     -825.266     -24.408     223.723
  C     -824.465     -23.900     224.721
  C     -825.115     -23.419     225.924
  O     -824.553     -22.927     226.897
  N     -823.140     -23.921     224.357
  C     -823.141     -24.441     223.143
  N     -824.407     -24.744     222.708
  O     -819.745     -23.484     219.706
  O     -821.406     -22.337     221.286
  H     -827.152     -24.596     220.890
  H     -820.591     -21.863     221.541
  H     -826.993     -23.250     226.683
  H     -822.261     -24.618     222.537
  H     -825.598     -26.006     221.604
  H     -824.671     -23.246     220.596
  H     -829.043     -23.883     225.736
  H     -824.911     -23.996     218.343
  H     -829.061     -24.580     224.149
  H     -823.968     -26.618     218.838
  H     -821.684     -25.675     219.104
  H     -822.556     -24.919     217.740
  P     -826.590     -25.708     217.227
  C     -827.925     -27.745     218.079
  O     -827.854     -26.686     217.128
  O     -825.475     -26.015     216.279
  O     -827.235     -24.273     216.918
  H     -827.082     -24.061     215.975
  H     -828.810     -28.321     217.906
  H     -827.953     -27.336     219.067
  H     -827.065     -28.374     217.978

 6  7  8  9  10  11  12  13  14  15  26  29  33  34 0
 6-311+G(2d,p)
 ****
 36  38  39  40  41 0
 6-311+G(2d,p)
 ****
 1  2  3  4  5  16  17  18  19  20  21  22  23  24  25 0
 3-21G
 ****
 27  28  30  31  32  35  37  42  43  44  45  46  47 0
 3-21G
 ****
 48  49 0
 3-21G
 ****


