%nproc=1
%NoSave
%Mem=1900MB
#P OB98/GEN NMR

erre ene a

0 1
  C     -287.692     293.823     334.320
  O     -286.443     294.403     333.983
  P     -286.125     294.846     332.473
  C     -284.486     292.887     332.165
  O     -285.676     293.519     331.694
  C     -283.667     292.341     330.997
  O     -282.459     291.733     331.513
  C     -284.408     291.277     330.187
  O     -284.054     291.416     328.810
  C     -283.832     289.961     330.690
  O     -283.933     288.932     329.698
  C     -282.402     290.371     331.058
  N     -278.858     286.853     332.263
  C     -279.127     287.492     331.103
  N     -280.099     288.398     330.847
  C     -280.803     288.662     331.960
  C     -280.644     288.087     333.215
  C     -279.617     287.134     333.348
  N     -279.333     286.485     334.534
  N     -281.576     288.588     334.108
  C     -282.273     289.456     333.408
  N     -281.836     289.547     332.110
  O     -285.187     295.994     332.336
  O     -287.560     295.167     331.844
  H     -284.888     288.723     329.592
  H     -287.501     295.935     331.248
  H     -278.481     287.248     330.264
  H     -283.100     290.045     333.783
  H     -281.738     290.330     330.186
  H     -284.395     289.631     331.577
  H     -285.490     291.326     330.302
  H     -283.369     293.178     330.358
  H     -284.773     292.061     332.820
  H     -278.506     285.920     334.561
  H     -279.781     286.830     335.379
  H     -283.895     293.602     332.745
  P     -285.280     291.479     327.768
  C     -285.079     288.909     327.373
  O     -285.890     289.994     327.768
  O     -284.872     292.046     326.450
  O     -286.333     292.369     328.585
  H     -286.175     292.308     329.555
  H     -285.681     287.992     327.407
  H     -284.236     288.795     328.064
  H     -284.714     289.056     326.357
  H     -287.710     293.599     335.366
  H     -287.830     292.922     333.759
  H     -288.479     294.511     334.089

 3  4  5  6  7  8  9  10  11  12  22  25  29  30  31  32 0
 6-311+G(2d,p)
 ****
 33  36  37 0
 6-311+G(2d,p)
 ****
 1  2  13  14  15  16  17  18  19  20  21  23  24  26 0
 3-21G
 ****
 27  28  34  35  38  39  40  41  42  43  44  45  46  47  48 0
 3-21G
 ****


