%nproc=1
%NoSave
%Mem=1900MB
#P OB98/GEN NMR

erre ene a

0 1
  C      185.655    -241.478    -134.250
  O      184.300    -241.559    -134.648
  H      185.725    -241.750    -133.193
  H      186.040    -240.463    -134.376
  H      186.256    -242.179    -134.833
  P      183.892    -240.944    -136.073
  C      182.762    -238.954    -134.878
  O      182.594    -240.037    -135.788
  C      181.463    -238.166    -134.707
  O      181.264    -237.262    -135.815
  C      180.211    -239.030    -134.678
  O      180.098    -239.873    -133.557
  C      179.119    -238.006    -134.954
  O      178.728    -237.299    -133.778
  C      179.839    -237.045    -135.936
  N      179.385    -237.214    -137.309
  C      178.043    -236.940    -137.547
  O      177.254    -236.592    -136.663
  N      177.616    -237.107    -138.836
  C      178.375    -237.559    -139.877
  O      177.925    -237.707    -141.010
  C      179.778    -237.871    -139.560
  C      180.212    -237.689    -138.310
  O      183.709    -241.937    -137.182
  O      185.031    -239.857    -136.359
  H      177.895    -236.831    -133.991
  H      185.031    -239.584    -137.311
  H      176.648    -236.896    -139.032
  H      180.402    -238.240    -140.358
  H      181.243    -237.907    -138.052
  H      179.657    -236.002    -135.644
  H      178.217    -238.461    -135.371
  H      180.236    -239.695    -135.554
  H      181.550    -237.561    -133.795
  H      183.535    -238.292    -135.285
  H      183.101    -239.340    -133.909
  P      180.147    -241.464    -133.633
  C      177.774    -241.804    -132.589
  O      179.171    -242.059    -132.508
  O      181.494    -242.090    -133.801
  O      179.310    -241.751    -134.988
  H      179.704    -242.539    -135.411
  H      177.278    -242.272    -131.765
  H      177.392    -242.200    -133.507
  H      177.602    -240.748    -132.557

 6  7  8  9  10  11  12  13  14  15  16  26  31  32  33  34  35 0
 6-311+G(2d,p)
 ****
 36  37 0
 6-311+G(2d,p)
 ****
 1  2  3  4  5  17  18  19  20  21  22  23  24  25 0
 3-21G
 ****
 27  28  29  30  38  39  40  41  42  43  44  45 0
 3-21G
 ****


