%nproc=1
%NoSave
%Mem=1900MB
#P OB98/GEN NMR

erre ene a

0 1
  C      -39.006    -307.608     232.650
  O      -40.412    -307.499     232.924
  P      -40.938    -307.621     234.435
  C      -41.483    -310.177     234.483
  O      -40.665    -309.114     234.960
  C      -40.960    -311.522     235.017
  O      -40.609    -311.394     236.423
  C      -41.976    -312.652     234.974
  O      -42.114    -313.197     233.667
  C      -41.373    -313.649     235.960
  O      -40.349    -314.438     235.338
  C      -40.763    -312.700     237.024
  N      -41.559    -312.635     238.249
  C      -41.570    -313.784     239.033
  O      -41.006    -314.833     238.717
  N      -42.293    -313.702     240.200
  C      -43.042    -312.629     240.605
  O      -43.680    -312.620     241.656
  C      -43.055    -311.485     239.694
  C      -42.330    -311.533     238.571
  O      -42.528    -307.617     234.246
  O      -40.510    -306.522     235.364
  H      -39.887    -314.907     236.060
  H      -42.944    -307.256     235.041
  H      -42.301    -314.515     240.801
  H      -43.655    -310.625     239.967
  H      -42.336    -310.690     237.883
  H      -39.744    -313.026     237.281
  H      -42.116    -314.335     236.368
  H      -42.945    -312.303     235.370
  H      -40.053    -311.792     234.467
  H      -41.449    -310.205     233.385
  H      -42.522    -310.013     234.804
  P      -43.368    -312.644     232.799
  C      -44.793    -314.767     233.325
  O      -44.651    -313.366     233.421
  O      -43.099    -313.392     231.401
  O      -43.423    -311.160     232.725
  H      -42.706    -314.260     231.518
  H      -43.826    -315.280     233.368
  H      -45.308    -315.020     232.380
  H      -45.417    -315.120     234.168
  H      -38.838    -307.503     231.598
  H      -38.653    -308.565     232.974
  H      -38.480    -306.837     233.174

 3  4  5  6  7  8  9  10  11  12  13  23  28  29  30  31  32 0
 6-311+G(2d,p)
 ****
 33  34 0
 6-311+G(2d,p)
 ****
 1  2  14  15  16  17  18  19  20  21  22  24  25  26 0
 3-21G
 ****
 27  35  36  37  38  39  40  41  42  43  44  45 0
 3-21G
 ****


