%nproc=1
%NoSave
%Mem=1900MB
#P OB98/GEN NMR

erre ene a

0 1
  C      106.575    -220.657    -532.043
  O      106.063    -221.256    -530.867
  P      107.101    -221.557    -529.675
  C      105.426    -220.646    -527.908
  O      106.723    -220.559    -528.483
  C      104.815    -219.250    -527.768
  O      104.566    -218.675    -529.064
  C      103.475    -219.227    -527.044
  O      103.618    -219.266    -525.638
  C      102.932    -217.877    -527.493
  O      103.522    -216.828    -526.703
  C      103.420    -217.796    -528.943
  N      100.305    -216.173    -532.596
  C      101.357    -215.524    -531.970
  N      101.566    -214.231    -532.334
  N      102.130    -216.081    -531.083
  C      101.797    -217.364    -530.807
  C      100.778    -218.117    -531.362
  C       99.924    -217.483    -532.340
  O       98.949    -217.988    -532.884
  N      100.755    -219.385    -530.843
  C      101.760    -219.409    -529.983
  N      102.390    -218.189    -529.891
  O      108.482    -220.965    -530.229
  O      107.217    -222.999    -529.302
  H      103.148    -215.983    -527.025
  H      109.231    -221.330    -529.719
  H       99.735    -215.696    -533.273
  H      102.049    -220.270    -529.389
  H      103.751    -216.787    -529.211
  H      101.849    -217.794    -527.366
  H      100.965    -213.734    -532.970
  H      102.813    -220.023    -527.410
  H      102.289    -213.717    -531.849
  H      105.545    -218.613    -527.246
  H      105.498    -221.114    -526.921
  H      104.794    -221.272    -528.543
  P      103.061    -220.573    -524.889
  C      105.424    -221.529    -524.391
  O      104.193    -221.690    -525.079
  O      101.879    -221.066    -525.854
  O      102.589    -220.335    -523.491
  H      101.208    -221.569    -525.343
  H      105.965    -222.482    -524.412
  H      105.260    -221.244    -523.348
  H      106.035    -220.768    -524.887
  H      105.781    -220.515    -532.746
  H      107.321    -221.293    -532.471
  H      107.010    -219.710    -531.801

 3  4  5  6  7  8  9  10  11  12  23  26  30  31 0
 6-311+G(2d,p)
 ****
 33  35  36  37  38 0
 6-311+G(2d,p)
 ****
 1  2  13  14  15  16  17  18  19  20  21  22  24  25 0
 3-21G
 ****
 27  28  29  32  34  39  40  41  42  43  44  45  46  47  48  49 0
 3-21G
 ****


