%nproc=1
%NoSave
%Mem=1900MB
#P OB98/GEN NMR

erre ene a

0 1
  C      282.807    -259.508    -163.855
  O      281.975    -260.323    -164.698
  P      280.644    -259.770    -165.411
  C      278.991    -260.045    -163.449
  O      279.666    -259.133    -164.305
  C      277.489    -260.111    -163.756
  O      276.855    -261.143    -162.938
  C      276.734    -258.797    -163.515
  O      275.768    -258.680    -164.568
  C      276.071    -259.063    -162.168
  O      274.976    -258.196    -161.888
  C      275.683    -260.536    -162.356
  N      275.281    -261.236    -161.137
  C      273.926    -261.210    -160.787
  O      273.109    -260.572    -161.439
  N      273.529    -261.907    -159.664
  C      274.401    -262.562    -158.963
  N      273.939    -263.243    -157.870
  C      275.837    -262.605    -159.292
  C      276.201    -261.933    -160.377
  O      279.971    -260.787    -166.283
  O      281.113    -258.512    -166.281
  H      280.592    -258.479    -167.106
  H      274.384    -258.198    -162.656
  H      276.529    -263.171    -158.686
  H      277.239    -261.938    -160.707
  H      274.873    -260.609    -163.100
  H      276.810    -258.929    -161.376
  H      277.377    -257.913    -163.527
  H      277.371    -260.435    -164.806
  H      272.943    -263.195    -157.682
  H      279.126    -259.715    -162.413
  H      274.526    -263.792    -157.263
  H      279.450    -261.035    -163.547
  P      275.826    -257.435    -165.573
  C      274.004    -255.942    -164.446
  O      275.370    -256.124    -164.758
  O      274.544    -257.695    -166.505
  O      277.062    -257.320    -166.405
  H      274.690    -257.274    -167.366
  H      273.916    -255.607    -163.409
  H      273.415    -256.856    -164.580
  H      273.601    -255.160    -165.103
  H      283.630    -260.090    -163.496
  H      282.233    -259.152    -163.025
  H      283.177    -258.676    -164.416

 3  4  5  6  7  8  9  10  11  12  13  24  27  28  29  30  32 0
 6-311+G(2d,p)
 ****
 34  35 0
 6-311+G(2d,p)
 ****
 1  2  14  15  16  17  18  19  20  21  22  23  25  26 0
 3-21G
 ****
 31  33  36  37  38  39  40  41  42  43  44  45  46 0
 3-21G
 ****


