%nproc=1
%NoSave
%Mem=1900MB
#P OB98/GEN NMR

erre ene a

0 1
  C       83.305    -122.553     370.543
  O       83.163    -122.568     371.950
  H       82.823    -123.434     370.113
  H       82.817    -121.655     370.149
  H       84.364    -122.532     370.263
  P       83.958    -123.713     372.746
  C       86.119    -122.286     372.990
  O       85.045    -122.943     373.646
  C       86.480    -120.990     373.721
  O       85.485    -119.983     373.400
  C       86.521    -121.140     375.247
  O       87.601    -120.356     375.759
  C       85.195    -120.548     375.695
  O       85.243    -120.072     377.035
  C       84.979    -119.458     374.648
  N       80.967    -117.443     377.081
  C       82.265    -117.568     377.431
  N       83.276    -118.114     376.719
  C       82.841    -118.512     375.507
  C       81.548    -118.449     375.010
  C       80.577    -117.889     375.860
  N       79.248    -117.790     375.524
  N       81.494    -118.993     373.738
  C       82.730    -119.371     373.476
  N       83.576    -119.108     374.519
  O       84.841    -124.382     371.586
  O       83.115    -124.714     373.458
  H       84.439    -119.537     377.200
  H       84.284    -125.000     371.070
  H       82.526    -117.191     378.415
  H       83.056    -119.848     372.562
  H       85.526    -118.533     374.883
  H       84.409    -121.312     375.629
  H       86.641    -122.176     375.568
  H       87.441    -120.622     373.330
  H       85.822    -122.056     371.961
  H       78.610    -117.428     376.219
  H       78.926    -118.173     374.646
  H       86.991    -122.952     372.968
  P       88.501    -121.025     376.909
  C       90.652    -121.399     375.508
  O       90.046    -120.716     376.597
  O       88.361    -122.596     376.619
  O       88.053    -120.684     378.294
  H       88.129    -123.064     377.443
  H       91.674    -121.095     375.421
  H       90.131    -121.162     374.604
  H       90.607    -122.454     375.679

 6  7  8  9  10  11  12  13  14  15  25  28  32  33  34  35 0
 6-311+G(2d,p)
 ****
 36  39  40 0
 6-311+G(2d,p)
 ****
 1  2  3  4  5  16  17  18  19  20  21  22  23  24 0
 3-21G
 ****
 26  27  29  30  31  37  38  41  42  43  44  45  46  47 0
 3-21G
 ****
 48 0
 3-21G
 ****


