%nproc=1
%NoSave
%Mem=1900MB
#P OB98/GEN NMR

erre ene a

0 1
  C       -6.502      72.036    -187.830
  O       -7.187      72.787    -186.844
  H       -6.287      72.686    -188.683
  H       -7.132      71.207    -188.167
  H       -5.560      71.650    -187.431
  P       -7.387      72.081    -185.421
  C       -8.630      69.865    -184.761
  O       -8.600      71.035    -185.572
  C       -9.661      68.879    -185.304
  O       -9.371      68.535    -186.673
  C       -9.675      67.535    -184.592
  O      -10.242      67.609    -183.300
  C      -10.498      66.705    -185.569
  O      -11.904      66.874    -185.355
  C      -10.075      67.297    -186.937
  N       -9.277      66.358    -187.705
  C      -10.005      65.442    -188.478
  O      -11.237      65.485    -188.487
  N       -9.322      64.487    -189.184
  C       -8.027      64.429    -189.104
  N       -7.412      63.435    -189.804
  C       -7.221      65.373    -188.302
  C       -7.905      66.303    -187.631
  O       -8.024      73.253    -184.540
  O       -6.149      71.483    -184.839
  H      -12.092      67.824    -185.503
  H       -8.771      73.704    -184.968
  H       -6.143      65.289    -188.278
  H       -7.392      67.036    -187.017
  H      -10.961      67.561    -187.531
  H      -10.286      65.636    -185.468
  H       -8.660      67.114    -184.556
  H      -10.649      69.360    -185.265
  H       -8.006      62.778    -190.297
  H       -8.863      70.125    -183.723
  H       -6.423      63.245    -189.753
  H       -7.630      69.423    -184.780
  P      -10.415      66.302    -182.390
  C      -12.103      64.352    -182.388
  O      -11.415      65.318    -183.178
  O      -10.798      66.558    -180.972
  O       -9.007      65.554    -182.561
  H       -8.784      65.306    -183.476
  H      -12.734      63.760    -183.018
  H      -12.700      64.851    -181.654
  H      -11.392      63.719    -181.899

 6  7  8  9  10  11  12  13  14  15  16  26  30  31  32  33  35 0
 6-311+G(2d,p)
 ****
 37  38 0
 6-311+G(2d,p)
 ****
 1  2  3  4  5  17  18  19  20  21  22  23  24  25 0
 3-21G
 ****
 27  28  29  34  36  39  40  41  42  43  44  45  46 0
 3-21G
 ****


