%nproc=1
%NoSave
%Mem=1900MB
#P OB98/GEN NMR

erre ene a

0 1
  C      108.505      90.804     -55.321
  O      107.123      90.534     -55.436
  H      108.634      91.828     -54.962
  H      108.985      90.710     -56.297
  H      108.974      90.118     -54.608
  P      106.691      89.017     -55.721
  C      105.612      88.852     -53.362
  O      106.540      88.308     -54.287
  C      105.946      88.380     -51.947
  O      107.387      88.472     -51.758
  C      105.283      89.210     -50.840
  O      104.941      88.333     -49.761
  C      106.398      90.136     -50.391
  O      106.237      90.637     -49.071
  C      107.615      89.219     -50.545
  N      108.872      89.959     -50.614
  C      109.508      90.252     -49.411
  O      109.136      89.862     -48.308
  N      110.629      91.037     -49.513
  C      111.146      91.560     -50.660
  O      112.141      92.274     -50.683
  C      110.426      91.224     -51.897
  C      109.338      90.454     -51.816
  O      108.026      88.369     -56.316
  O      105.517      88.843     -56.626
  H      108.050      88.467     -57.286
  H      106.047      89.872     -48.489
  H      111.102      91.259     -48.650
  H      110.800      91.630     -52.826
  H      108.771      90.203     -52.707
  H      107.657      88.498     -49.720
  H      106.467      90.993     -51.072
  H      104.396      89.762     -51.163
  H      105.678      87.321     -51.856
  H      104.603      88.516     -53.620
  H      105.644      89.945     -53.418
  P      103.414      87.847     -49.663
  C      103.931      85.334     -50.198
  O      103.315      86.549     -50.600
  O      102.671      88.995     -50.490
  O      102.948      87.673     -48.257
  H      103.197      89.324     -51.238
  H      103.761      84.585     -50.943
  H      103.513      85.013     -49.267
  H      104.983      85.489     -50.082

 6  7  8  9  10  11  12  13  14  15  16  27  31  32  33  34  35 0
 6-311+G(2d,p)
 ****
 36  37 0
 6-311+G(2d,p)
 ****
 1  2  3  4  5  17  18  19  20  21  22  23  24  25 0
 3-21G
 ****
 26  28  29  30  38  39  40  41  42  43  44  45 0
 3-21G
 ****


