%nproc=1
%NoSave
%Mem=1900MB
#P OB98/GEN NMR

erre ene a

0 1
  C      -42.269    -100.897    -492.963
  O      -41.309    -101.656    -492.269
  P      -40.181    -102.530    -492.981
  C      -40.817    -104.883    -492.027
  O      -39.879    -103.812    -492.066
  C      -40.355    -105.986    -491.061
  O      -39.171    -106.614    -491.619
  C      -39.946    -105.406    -489.690
  O      -40.384    -106.185    -488.586
  C      -38.448    -105.192    -489.844
  O      -37.760    -105.087    -488.605
  C      -38.059    -106.364    -490.738
  N      -32.993    -105.849    -490.767
  C      -33.817    -106.298    -489.748
  N      -33.238    -106.457    -488.538
  N      -35.095    -106.535    -489.912
  C      -35.556    -106.220    -491.142
  C      -34.837    -105.767    -492.226
  C      -33.420    -105.547    -492.048
  O      -32.677    -105.039    -492.885
  N      -35.648    -105.493    -493.301
  C      -36.864    -105.743    -492.853
  N      -36.860    -106.157    -491.539
  O      -39.019    -101.787    -493.561
  O      -41.003    -103.182    -494.213
  H      -36.804    -105.020    -488.807
  H      -40.381    -103.260    -494.965
  H      -32.032    -105.608    -490.559
  H      -37.778    -105.612    -493.420
  H      -37.874    -107.265    -490.155
  H      -38.308    -104.234    -490.370
  H      -32.292    -106.144    -488.353
  H      -40.434    -104.437    -489.530
  H      -33.857    -106.547    -487.736
  H      -41.133    -106.752    -490.986
  H      -40.883    -105.274    -493.048
  H      -41.811    -104.516    -491.745
  P      -41.820    -106.202    -487.881
  C      -40.817    -105.459    -485.637
  O      -41.612    -106.417    -486.305
  O      -42.488    -107.584    -488.346
  O      -42.702    -105.057    -488.238
  H      -43.440    -107.440    -488.516
  H      -40.530    -105.859    -484.657
  H      -41.397    -104.543    -485.485
  H      -39.912    -105.230    -486.210
  H      -42.909    -100.404    -492.261
  H      -42.852    -101.543    -493.586
  H      -41.776    -100.167    -493.570

 3  4  5  6  7  8  9  10  11  12  23  26  30  31 0
 6-311+G(2d,p)
 ****
 33  35  36  37  38 0
 6-311+G(2d,p)
 ****
 1  2  13  14  15  16  17  18  19  20  21  22  24  25 0
 3-21G
 ****
 27  28  29  32  34  39  40  41  42  43  44  45  46  47  48  49 0
 3-21G
 ****


