%nproc=1
%NoSave
%Mem=1900MB
#P OB98/GEN NMR

erre ene a

0 1
  C     -820.959     879.190     -11.273
  O     -819.629     879.166     -11.750
  H     -821.523     878.400     -11.777
  H     -821.422     880.155     -11.505
  H     -820.997     879.013     -10.194
  P     -818.511     879.992     -10.961
  C     -817.481     879.949      -8.593
  O     -818.344     879.306      -9.519
  C     -817.071     878.986      -7.472
  O     -818.267     878.434      -6.864
  C     -816.264     877.797      -8.022
  O     -815.371     877.268      -7.048
  C     -817.339     876.767      -8.312
  O     -816.842     875.430      -8.341
  C     -818.332     877.027      -7.187
  N     -821.488     873.369      -8.820
  C     -820.105     873.384      -8.800
  N     -819.477     872.278      -9.271
  N     -819.402     874.399      -8.372
  C     -820.152     875.463      -7.996
  C     -821.529     875.578      -7.996
  C     -822.291     874.427      -8.433
  O     -823.522     874.373      -8.493
  N     -821.925     876.814      -7.550
  C     -820.804     877.448      -7.293
  N     -819.696     876.667      -7.523
  O     -819.244     881.373     -10.603
  O     -817.229     880.228     -11.705
  H     -817.603     874.839      -8.492
  H     -818.583     882.074     -10.441
  H     -821.984     872.552      -9.130
  H     -820.734     878.464      -6.923
  H     -818.053     876.469      -6.285
  H     -817.758     876.976      -9.303
  H     -819.980     871.567      -9.783
  H     -815.706     878.054      -8.919
  H     -818.503     872.396      -9.554
  H     -816.535     879.528      -6.685
  H     -818.025     880.804      -8.187
  H     -816.599     880.347      -9.108
  P     -813.980     878.034      -6.795
  C     -813.420     879.753      -4.854
  O     -813.887     878.478      -5.262
  O     -814.142     879.408      -7.585
  O     -812.766     877.271      -7.236
  H     -813.504     879.456      -8.320
  H     -813.448     879.818      -3.786
  H     -814.045     880.513      -5.275
  H     -812.414     879.890      -5.193

 6  7  8  9  10  11  12  13  14  15  26  29  33  34 0
 6-311+G(2d,p)
 ****
 36  38  39  40  41 0
 6-311+G(2d,p)
 ****
 1  2  3  4  5  16  17  18  19  20  21  22  23  24  25 0
 3-21G
 ****
 27  28  30  31  32  35  37  42  43  44  45  46  47 0
 3-21G
 ****
 48  49 0
 3-21G
 ****


