%nproc=1
%NoSave
%Mem=1900MB
#P OB98/GEN NMR

erre ene a

0 1
  C     -153.876     297.120     329.937
  O     -154.459     297.182     328.650
  P     -155.980     297.651     328.457
  C     -158.244     296.524     328.043
  O     -156.916     296.348     328.503
  C     -158.983     295.185     327.946
  O     -158.391     294.386     326.880
  C     -158.945     294.350     329.233
  O     -160.218     293.713     329.361
  C     -157.861     293.327     328.944
  O     -157.985     292.170     329.759
  C     -158.068     293.097     327.444
  N     -156.906     292.512     326.804
  C     -156.945     291.131     326.566
  O     -157.869     290.455     327.010
  N     -155.921     290.563     325.843
  C     -154.870     291.276     325.556
  N     -153.914     290.692     324.780
  C     -154.695     292.667     326.014
  C     -155.758     293.235     326.589
  O     -156.221     298.542     327.281
  O     -156.342     298.403     329.826
  H     -156.688     299.297     329.622
  H     -157.323     291.511     329.479
  H     -153.753     293.172     325.857
  H     -155.731     294.263     326.931
  H     -158.937     292.448     327.274
  H     -156.875     293.764     329.134
  H     -158.752     294.959     330.122
  H     -160.018     295.384     327.657
  H     -154.088     289.750     324.452
  H     -158.204     296.980     327.052
  H     -153.239     291.242     324.252
  H     -158.782     297.209     328.706
  P     -160.773     293.406     330.842
  C     -160.388     291.535     332.606
  O     -159.928     292.172     331.435
  O     -162.187     292.712     330.518
  O     -160.976     294.582     331.735
  H     -162.780     292.830     331.284
  H     -159.656     290.782     332.906
  H     -161.346     291.047     332.425
  H     -160.489     292.261     333.422
  H     -152.863     296.787     329.854
  H     -154.428     296.435     330.546
  H     -153.897     298.091     330.385

 3  4  5  6  7  8  9  10  11  12  13  24  27  28  29  30  32 0
 6-311+G(2d,p)
 ****
 34  35 0
 6-311+G(2d,p)
 ****
 1  2  14  15  16  17  18  19  20  21  22  23  25  26 0
 3-21G
 ****
 31  33  36  37  38  39  40  41  42  43  44  45  46 0
 3-21G
 ****


