%nproc=1
%NoSave
%Mem=1900MB
#P OB98/GEN NMR

erre ene a

0 1
  C     -140.450    -348.226    -122.455
  O     -139.988    -348.795    -121.247
  H     -141.539    -348.154    -122.411
  H     -140.172    -348.862    -123.299
  H     -140.035    -347.225    -122.587
  P     -138.396    -348.972    -121.082
  C     -138.436    -351.546    -121.460
  O     -138.032    -350.276    -121.953
  C     -137.660    -352.663    -122.165
  O     -137.801    -353.889    -121.411
  C     -138.153    -352.936    -123.592
  O     -137.025    -353.115    -124.452
  C     -138.952    -354.219    -123.475
  O     -138.994    -354.946    -124.700
  C     -138.249    -354.924    -122.308
  N     -139.134    -355.868    -121.628
  C     -139.483    -357.028    -122.334
  O     -139.055    -357.211    -123.475
  N     -140.340    -357.925    -121.752
  C     -140.863    -357.659    -120.597
  N     -141.724    -358.577    -120.081
  C     -140.566    -356.426    -119.839
  C     -139.698    -355.589    -120.408
  O     -138.247    -349.471    -119.572
  O     -137.584    -347.763    -121.406
  H     -139.377    -355.832    -124.512
  H     -137.310    -349.418    -119.265
  H     -141.037    -356.243    -118.885
  H     -139.422    -354.659    -119.924
  H     -137.365    -355.473    -122.666
  H     -139.983    -353.979    -123.193
  H     -138.772    -352.128    -123.990
  H     -136.593    -352.407    -122.156
  H     -141.918    -359.405    -120.635
  H     -139.510    -351.673    -121.639
  H     -142.214    -358.459    -119.204
  H     -138.241    -351.591    -120.384
  P     -137.032    -352.263    -125.815
  C     -137.600    -354.171    -127.480
  O     -138.046    -352.985    -126.830
  O     -135.586    -352.545    -126.441
  O     -137.290    -350.807    -125.607
  H     -134.982    -351.806    -126.253
  H     -138.374    -354.539    -128.121
  H     -137.362    -354.912    -126.746
  H     -136.729    -353.953    -128.061

 6  7  8  9  10  11  12  13  14  15  16  26  30  31  32  33  35 0
 6-311+G(2d,p)
 ****
 37  38 0
 6-311+G(2d,p)
 ****
 1  2  3  4  5  17  18  19  20  21  22  23  24  25 0
 3-21G
 ****
 27  28  29  34  36  39  40  41  42  43  44  45  46 0
 3-21G
 ****


