%nproc=1
%NoSave
%Mem=1900MB
#P OB98/GEN NMR

erre ene a

0 1
  C       93.096      61.443     287.655
  O       92.268      62.271     288.449
  H       94.127      61.798     287.734
  H       92.784      61.493     286.607
  H       93.049      60.411     288.012
  P       90.707      61.897     288.487
  C       88.793      62.084     286.752
  O       90.161      62.339     287.045
  C       88.474      62.460     285.306
  O       89.220      61.633     284.392
  C       87.010      62.290     284.920
  O       86.240      63.394     285.360
  C       87.119      62.246     283.402
  O       87.255      63.585     282.887
  C       88.430      61.467     283.183
  N       87.936      57.872     279.551
  C       87.908      59.219     279.486
  N       88.004      60.112     280.497
  C       88.139      59.483     281.676
  C       88.183      58.113     281.896
  C       88.083      57.288     280.761
  N       88.122      55.912     280.830
  N       88.327      57.835     283.240
  C       88.427      59.019     283.815
  N       88.280      60.045     282.917
  O       89.949      62.400     289.666
  O       90.773      60.300     288.352
  H       87.097      63.547     281.924
  H       91.475      60.038     287.730
  H       87.797      59.643     278.492
  H       88.616      59.184     284.868
  H       89.013      61.879     282.351
  H       86.234      61.812     282.933
  H       86.610      61.335     285.278
  H       88.804      63.496     285.148
  H       88.145      62.646     287.433
  H       87.874      55.397     279.997
  H       88.108      55.480     281.743
  H       88.617      61.015     286.911
  P       84.641      63.291     285.460
  C       82.660      63.618     283.851
  O       84.074      63.518     283.975
  O       84.016      64.154     286.499
  O       84.356      61.740     285.724
  H       83.613      61.632     286.350
  H       82.402      63.767     282.823
  H       82.309      64.446     284.431
  H       82.206      62.716     284.206

 6  7  8  9  10  11  12  13  14  15  25  28  32  33  34  35 0
 6-311+G(2d,p)
 ****
 36  39  40 0
 6-311+G(2d,p)
 ****
 1  2  3  4  5  16  17  18  19  20  21  22  23  24 0
 3-21G
 ****
 26  27  29  30  31  37  38  41  42  43  44  45  46  47 0
 3-21G
 ****
 48 0
 3-21G
 ****


