%nproc=1
%NoSave
%Mem=1900MB
#P OB98/GEN NMR

erre ene a

0 1
  C     -115.337     279.819    -219.036
  O     -114.204     280.668    -218.808
  P     -114.207     281.884    -217.756
  C     -112.030     281.228    -216.536
  O     -112.696     282.213    -217.314
  C     -110.666     281.721    -216.044
  O     -109.657     281.538    -217.088
  C     -110.629     283.206    -215.632
  O     -109.787     283.294    -214.481
  C     -109.984     283.858    -216.851
  O     -109.458     285.144    -216.594
  C     -108.944     282.789    -217.195
  N     -108.320     282.920    -218.511
  C     -107.339     283.909    -218.672
  O     -107.049     284.684    -217.757
  N     -106.714     284.014    -219.890
  C     -107.037     283.223    -220.862
  N     -106.368     283.376    -222.042
  C     -108.077     282.183    -220.742
  C     -108.667     282.088    -219.552
  O     -115.129     281.667    -216.596
  O     -114.653     283.173    -218.593
  H     -115.200     283.753    -218.028
  H     -108.931     285.417    -217.369
  H     -108.309     281.538    -221.579
  H     -109.426     281.327    -219.375
  H     -108.166     282.783    -216.421
  H     -110.741     283.955    -217.635
  H     -111.616     283.612    -215.374
  H     -110.358     281.088    -215.201
  H     -105.651     284.095    -222.080
  H     -111.883     280.338    -217.156
  H     -106.535     282.804    -222.856
  H     -112.665     280.955    -215.684
  P     -110.279     284.105    -213.192
  C     -109.714     282.132    -211.587
  O     -109.528     283.497    -211.911
  O     -111.769     283.543    -212.996
  O     -110.305     285.598    -213.316
  H     -112.308     284.212    -212.529
  H     -108.745     281.690    -211.339
  H     -110.163     281.561    -212.404
  H     -110.370     282.063    -210.705
  H     -115.091     279.088    -219.777
  H     -116.162     280.409    -219.377
  H     -115.603     279.327    -218.124

 3  4  5  6  7  8  9  10  11  12  13  24  27  28  29  30  32 0
 6-311+G(2d,p)
 ****
 34  35 0
 6-311+G(2d,p)
 ****
 1  2  14  15  16  17  18  19  20  21  22  23  25  26 0
 3-21G
 ****
 31  33  36  37  38  39  40  41  42  43  44  45  46 0
 3-21G
 ****


