%nproc=1
%NoSave
%Mem=1900MB
#P OB98/GEN NMR

erre ene a

0 1
  C     -105.397      -1.774     157.126
  O     -105.531      -2.467     158.350
  H     -104.334      -1.677     156.895
  H     -105.829      -0.774     157.206
  H     -105.881      -2.327     156.316
  P     -107.007      -2.740     158.920
  C     -105.925      -2.769     161.276
  O     -106.754      -3.447     160.342
  C     -105.450      -3.735     162.357
  O     -106.566      -4.316     163.067
  C     -104.659      -4.933     161.848
  O     -103.340      -4.613     161.433
  C     -104.676      -5.808     163.088
  O     -103.744      -5.296     164.054
  C     -106.138      -5.618     163.560
  N     -107.030      -6.671     163.072
  C     -106.711      -7.981     163.448
  O     -105.727      -8.217     164.144
  N     -107.508      -9.008     162.996
  C     -108.512      -8.752     162.219
  N     -109.260      -9.806     161.794
  C     -108.870      -7.388     161.781
  C     -108.099      -6.406     162.241
  O     -107.940      -3.459     158.001
  O     -107.535      -1.297     159.368
  H     -103.795      -5.877     164.835
  H     -108.453      -1.408     159.720
  H     -109.700      -7.231     161.110
  H     -108.292      -5.376     161.962
  H     -106.192      -5.585     164.656
  H     -104.401      -6.845     162.888
  H     -105.204      -5.451     161.046
  H     -104.873      -3.152     163.087
  H     -108.993     -10.732     162.109
  H     -106.500      -1.945     161.710
  H     -110.016      -9.708     161.127
  H     -105.046      -2.360     160.769
  P     -103.067      -4.558     159.848
  C     -101.544      -6.680     159.875
  O     -101.664      -5.292     159.608
  O     -102.754      -3.013     159.591
  O     -104.185      -5.069     158.993
  H     -103.545      -2.550     159.252
  H     -100.546      -7.000     159.660
  H     -102.232      -7.222     159.261
  H     -101.764      -6.865     160.906

 6  7  8  9  10  11  12  13  14  15  16  26  30  31  32  33  35 0
 6-311+G(2d,p)
 ****
 37  38 0
 6-311+G(2d,p)
 ****
 1  2  3  4  5  17  18  19  20  21  22  23  24  25 0
 3-21G
 ****
 27  28  29  34  36  39  40  41  42  43  44  45  46 0
 3-21G
 ****


