%nproc=1
%NoSave
%Mem=1900MB
#P OB98/GEN NMR

erre ene a

0 1
  C     -182.986     -57.617      64.648
  O     -181.685     -58.086      64.364
  H     -183.272     -57.957      65.647
  H     -183.703     -58.015      63.922
  H     -183.003     -56.525      64.628
  P     -181.096     -57.741      62.912
  C     -178.933     -56.669      63.816
  O     -179.503     -57.765      63.110
  C     -178.810     -57.000      65.304
  O     -178.149     -58.283      65.439
  C     -177.989     -55.972      66.092
  O     -178.549     -55.832      67.400
  C     -176.626     -56.631      66.201
  O     -175.868     -56.131      67.301
  C     -177.016     -58.104      66.306
  N     -173.129     -60.868      68.083
  C     -174.152     -60.245      68.704
  N     -175.164     -59.546      68.146
  C     -175.079     -59.578      66.804
  C     -174.096     -60.170      66.031
  C     -173.074     -60.836      66.731
  N     -172.008     -61.447      66.113
  N     -174.335     -59.942      64.692
  C     -175.447     -59.234      64.655
  N     -175.920     -58.972      65.910
  O     -181.638     -56.505      62.275
  O     -181.366     -59.101      62.112
  H     -175.677     -55.183      67.140
  H     -181.097     -59.880      62.635
  H     -174.157     -60.306      69.789
  H     -175.937     -58.873      63.754
  H     -177.308     -58.393      67.324
  H     -176.048     -56.448      65.287
  H     -177.937     -54.999      65.605
  H     -179.816     -57.112      65.723
  H     -179.554     -55.776      63.687
  H     -171.320     -61.902      66.691
  H     -171.950     -61.439      65.105
  H     -177.945     -56.470      63.387
  P     -179.846     -54.911      67.595
  C     -180.760     -55.866      69.805
  O     -180.138     -54.760      69.168
  O     -181.031     -55.277      66.765
  O     -179.304     -53.451      67.207
  H     -179.981     -52.991      66.670
  H     -180.901     -55.647      70.843
  H     -180.139     -56.731      69.704
  H     -181.709     -56.053      69.348

 6  7  8  9  10  11  12  13  14  15  25  28  32  33  34  35 0
 6-311+G(2d,p)
 ****
 36  39  40 0
 6-311+G(2d,p)
 ****
 1  2  3  4  5  16  17  18  19  20  21  22  23  24 0
 3-21G
 ****
 26  27  29  30  31  37  38  41  42  43  44  45  46  47 0
 3-21G
 ****
 48 0
 3-21G
 ****


