%nproc=1
%NoSave
%Mem=1900MB
#P OB98/GEN NMR

erre ene a

0 1
  C     -851.480     877.614     104.718
  O     -852.155     878.295     105.752
  H     -850.728     876.963     105.167
  H     -850.972     878.335     104.062
  H     -852.178     877.014     104.133
  P     -853.319     879.307     105.294
  C     -855.490     878.048     106.052
  O     -854.540     879.071     106.313
  C     -856.465     877.877     107.228
  O     -855.725     877.375     108.379
  C     -857.118     879.216     107.679
  O     -858.401     878.899     108.224
  C     -856.176     879.648     108.775
  O     -856.758     880.685     109.544
  C     -855.919     878.325     109.463
  N     -854.268     879.300     114.199
  C     -855.492     879.335     113.655
  N     -855.858     879.050     112.393
  C     -854.803     878.668     111.657
  C     -853.488     878.566     112.069
  C     -853.213     878.900     113.413
  N     -851.965     878.885     113.964
  N     -852.665     878.159     111.024
  C     -853.495     878.001     110.004
  N     -854.774     878.300     110.336
  O     -853.860     878.661     103.929
  O     -852.910     880.728     105.121
  H     -856.943     881.473     109.005
  H     -853.422     879.080     103.171
  H     -856.297     879.639     114.330
  H     -853.186     877.662     108.999
  H     -856.797     877.985     110.032
  H     -855.255     880.069     108.351
  H     -857.230     879.940     106.845
  H     -857.215     877.128     106.948
  H     -854.947     877.091     105.896
  H     -856.049     878.287     105.143
  H     -851.842     879.158     114.934
  H     -851.178     878.614     113.391
  P     -859.655     879.873     107.891
  C     -861.327     877.850     107.948
  O     -861.000     879.169     108.391
  O     -859.789     879.711     106.302
  O     -859.491     881.291     108.278
  H     -860.159     880.524     105.929
  H     -862.256     877.547     108.384
  H     -860.555     877.172     108.247
  H     -861.414     877.843     106.882

 6  7  8  9  10  11  12  13  14  15  25  28  32  33  34  35 0
 6-311+G(2d,p)
 ****
 36  37  40 0
 6-311+G(2d,p)
 ****
 1  2  3  4  5  16  17  18  19  20  21  22  23  24 0
 3-21G
 ****
 26  27  29  30  31  38  39 41  42  43  44  45  46  47  48 0
 3-21G
 ****


