%nproc=1
%NoSave
%Mem=1900MB
#P OB98/GEN NMR

erre ene a

0 1
  C     -852.313     987.788     498.739
  O     -851.281     988.599     499.269
  H     -852.808     988.346     497.930
  H     -853.051     987.569     499.512
  H     -851.901     986.866     498.326
  P     -850.318     987.911     500.353
  C     -851.895     988.663     502.317
  O     -850.599     988.679     501.738
  C     -852.054     989.830     503.285
  O     -851.147     989.656     504.398
  C     -851.760     991.208     502.661
  O     -852.653     992.177     503.238
  C     -850.340     991.496     503.108
  O     -850.049     992.890     503.099
  C     -850.330     990.832     504.505
  N     -848.977     990.531     504.968
  C     -848.232     991.585     505.500
  O     -848.703     992.718     505.551
  N     -846.950     991.337     505.920
  C     -846.425     990.163     505.755
  N     -845.149     989.990     506.186
  C     -847.171     989.027     505.164
  C     -848.424     989.278     504.804
  O     -848.880     988.452     499.897
  O     -850.422     986.422     500.421
  H     -850.633     993.338     503.743
  H     -848.865     989.401     499.693
  H     -846.692     988.073     505.046
  H     -849.043     988.497     504.374
  H     -850.797     991.498     505.250
  H     -849.620     990.993     502.453
  H     -851.870     991.214     501.569
  H     -853.072     989.798     503.699
  H     -844.666     990.802     506.565
  H     -852.063     987.722     502.845
  H     -844.621     989.134     506.055
  H     -852.614     988.736     501.497
  P     -853.896     992.690     502.380
  C     -853.008     995.092     501.979
  O     -854.032     994.278     502.564
  O     -855.176     991.924     502.560
  O     -853.395     992.557     500.872
  H     -854.126     992.215     500.331
  H     -853.217     996.123     502.174
  H     -852.981     994.927     500.922
  H     -852.061     994.834     502.404

 6  7  8  9  10  11  12  13  14  15  16  26  30  31  32  33  35 0
 6-311+G(2d,p)
 ****
 37  38 0
 6-311+G(2d,p)
 ****
 1  2  3  4  5  17  18  19  20  21  22  23  24  25 0
 3-21G
 ****
 27  28  29  34  36  39  40  41  42  43  44  45  46 0
 3-21G
 ****


