%nproc=1
%NoSave
%Mem=1900MB
#P OB98/GEN NMR

erre ene a

0 1
  C     -536.421    -144.384     386.566
  O     -536.190    -145.229     387.702
  P     -536.966    -144.839     389.048
  C     -535.469    -146.447     390.444
  O     -536.790    -146.052     390.091
  C     -535.340    -147.969     390.346
  O     -535.389    -148.428     388.979
  C     -534.017    -148.496     390.897
  O     -534.010    -148.480     392.319
  C     -533.986    -149.891     390.276
  O     -534.825    -150.794     391.026
  C     -534.601    -149.641     388.886
  N     -531.266    -152.142     385.929
  C     -532.114    -152.573     386.886
  N     -532.976    -151.840     387.630
  C     -532.900    -150.536     387.302
  C     -532.091    -149.955     386.344
  C     -531.231    -150.824     385.638
  N     -530.358    -150.386     384.666
  N     -532.296    -148.597     386.279
  C     -533.204    -148.356     387.208
  N     -533.607    -149.502     387.840
  O     -538.510    -144.926     388.626
  O     -536.606    -143.490     389.585
  H     -534.978    -151.580     390.464
  H     -538.884    -144.029     388.576
  H     -532.106    -153.636     387.086
  H     -533.595    -147.374     387.456
  H     -535.275    -150.448     388.591
  H     -532.976    -150.323     390.253
  H     -533.176    -147.903     390.517
  H     -536.177    -148.421     390.896
  H     -535.231    -146.119     391.459
  H     -529.719    -151.063     384.266
  H     -530.257    -149.392     384.500
  H     -534.765    -145.952     389.767
  P     -532.593    -148.605     393.060
  C     -533.174    -150.785     394.285
  O     -532.940    -149.394     394.420
  O     -532.360    -147.107     393.574
  O     -531.493    -149.186     392.228
  H     -533.169    -146.734     393.979
  H     -533.362    -151.200     395.278
  H     -532.296    -151.277     393.858
  H     -534.046    -150.961     393.653
  H     -535.853    -144.742     385.733
  H     -536.121    -143.384     386.799
  H     -537.462    -144.396     386.319

 3  4  5  6  7  8  9  10  11  12  22  25  29  30  31  32 0
 6-311+G(2d,p)
 ****
 33  36  37 0
 6-311+G(2d,p)
 ****
 1  2  13  14  15  16  17  18  19  20  21  23  24  26 0
 3-21G
 ****
 27  28  34  35  38  39  40  41  42  43  44  45  46  47  48 0
 3-21G
 ****


