%nproc=1
%NoSave
%Mem=1900MB
#P OB98/GEN NMR

erre ene a

0 1
  C       54.036      -6.962    -163.657
  O       52.713      -7.511    -163.604
  P       52.153      -8.312    -162.334
  C       50.350      -6.516    -161.912
  O       51.405      -7.292    -161.351
  C       49.194      -6.336    -160.924
  O       48.480      -7.574    -160.748
  C       49.611      -5.907    -159.523
  O       49.950      -4.532    -159.489
  C       48.368      -6.279    -158.720
  O       47.362      -5.258    -158.822
  C       47.910      -7.572    -159.425
  N       48.275      -8.772    -158.683
  C       47.321      -9.270    -157.792
  O       46.258      -8.674    -157.617
  N       47.607     -10.423    -157.100
  C       48.770     -10.981    -157.231
  N       48.993     -12.123    -156.527
  C       49.837     -10.437    -158.091
  C       49.522      -9.343    -158.782
  O       53.174      -9.170    -161.658
  O       50.960      -9.217    -162.907
  H       47.208      -5.115    -159.775
  H       50.900     -10.036    -162.381
  H       50.801     -10.916    -158.151
  H       50.244      -8.882    -159.445
  H       46.822      -7.565    -159.564
  H       48.581      -6.416    -157.657
  H       50.457      -6.516    -159.185
  H       48.497      -5.605    -161.355
  H       48.239     -12.474    -155.952
  H       49.984      -7.032    -162.806
  H       49.861     -12.637    -156.559
  H       50.750      -5.541    -162.209
  P       51.389      -4.082    -158.951
  C       51.903      -3.196    -161.305
  O       52.365      -3.972    -160.216
  O       51.925      -4.866    -157.801
  O       51.175      -2.545    -158.542
  H       51.764      -2.333    -157.795
  H       52.763      -2.869    -161.893
  H       51.353      -2.316    -160.957
  H       51.252      -3.807    -161.935
  H       54.183      -6.475    -164.598
  H       54.753      -7.748    -163.547
  H       54.160      -6.253    -162.865

 3  4  5  6  7  8  9  10  11  12  13  23  27  28  29  30  32 0
 6-311+G(2d,p)
 ****
 34  35 0
 6-311+G(2d,p)
 ****
 1  2  14  15  16  17  18  19  20  21  22  24  25  26 0
 3-21G
 ****
 31  33  36  37  38  39  40  41  42  43  44  45  46 0
 3-21G
 ****


