%nproc=1
%NoSave
%Mem=1900MB
#P OB98/GEN NMR

erre ene a

0 1
  C      -74.599      -0.333      37.841
  O      -75.794      -0.250      38.624
  P      -75.604      -0.047      40.210
  C      -77.226       0.221      42.228
  O      -77.045      -0.228      40.892
  C      -78.707       0.203      42.609
  O      -79.478       1.014      41.711
  C      -79.351      -1.177      42.553
  O      -79.048      -1.945      43.710
  C      -80.827      -0.811      42.520
  O      -81.300      -0.554      43.855
  C      -80.829       0.484      41.692
  N      -84.722      -0.283      38.534
  C      -84.712      -0.122      39.908
  N      -85.918      -0.140      40.520
  N      -83.625       0.045      40.613
  C      -82.497       0.075      39.858
  C      -82.375      -0.077      38.496
  C      -83.586      -0.292      37.731
  O      -83.647      -0.472      36.519
  N      -81.068       0.019      38.095
  C      -80.400       0.256      39.208
  N      -81.225       0.284      40.310
  O      -75.328       1.526      40.338
  O      -74.498      -0.858      40.797
  H      -80.812       0.226      44.185
  H      -74.801       1.709      41.138
  H      -85.587      -0.416      38.041
  H      -79.332       0.416      39.274
  H      -81.483       1.247      42.129
  H      -81.453      -1.612      42.110
  H      -86.798      -0.193      40.034
  H      -79.076      -1.701      41.630
  H      -85.933       0.012      41.523
  H      -78.803       0.618      43.623
  H      -76.834       1.232      42.336
  H      -76.642      -0.420      42.900
  P      -78.888      -3.531      43.517
  C      -77.937      -5.394      45.053
  O      -78.515      -4.106      44.964
  O      -77.530      -3.661      42.683
  O      -80.035      -4.187      42.822
  H      -77.545      -4.466      42.130
  H      -77.173      -5.537      44.283
  H      -78.715      -6.154      44.947
  H      -77.469      -5.502      46.034
  H      -74.856      -0.467      36.811
  H      -74.012      -1.164      38.173
  H      -74.035       0.569      37.954

 3  4  5  6  7  8  9  10  11  12  23  26  30  31  33  0
 6-311+G(2d,p)
 ****
 35  36  37  38 0
 6-311+G(2d,p)
 ****
 1  2  13  14  15  16  17  18  19  20  21  22  24  25  27  28  29 0
 3-21G
 ****
 32  34  39  40  41  42  43  44  45  46  47  48  49 0
 3-21G
 ****


