%nproc=1
%NoSave
%Mem=1900MB
#P OB98/GEN NMR

erre ene a

0 1
  C     -721.586     759.376    -896.980
  O     -722.433     760.505    -896.820
  H     -720.934     759.536    -897.850
  H     -722.187     758.475    -897.160
  H     -720.966     759.241    -896.090
  P     -723.349     760.544    -895.520
  C     -721.602     762.019    -894.220
  O     -722.941     761.863    -894.690
  C     -721.091     763.413    -894.540
  O     -721.104     763.669    -895.970
  C     -721.944     764.540    -893.960
  O     -721.828     764.650    -892.560
  C     -721.395     765.730    -894.740
  O     -720.151     766.185    -894.170
  C     -721.178     765.118    -896.140
  N     -722.218     765.508    -897.090
  C     -722.115     766.818    -897.590
  O     -721.175     767.550    -897.220
  N     -723.071     767.252    -898.450
  C     -724.028     766.457    -898.820
  N     -724.974     766.976    -899.680
  C     -724.153     765.065    -898.330
  C     -723.212     764.648    -897.500
  O     -722.761     759.358    -894.620
  O     -724.815     760.457    -895.760
  H     -720.305     766.308    -893.210
  H     -721.788     759.424    -894.490
  H     -724.965     764.444    -898.680
  H     -723.236     763.666    -897.080
  H     -720.199     765.418    -896.540
  H     -722.062     766.585    -894.720
  H     -722.988     764.403    -894.270
  H     -720.055     763.499    -894.190
  H     -724.849     767.948    -899.970
  H     -720.936     761.250    -894.650
  H     -725.772     766.461    -900.000
  H     -721.614     761.861    -893.140
  P     -723.039     765.205    -891.680
  C     -724.320     762.974    -891.710
  O     -723.685     763.932    -890.890
  O     -724.029     766.018    -892.440
  O     -722.302     766.005    -890.490
  H     -721.706     765.450    -889.950
  H     -724.708     762.184    -891.101
  H     -723.612     762.573    -892.405
  H     -725.122     763.438    -892.246

 6  7  8  9  10  11  12  13  14  15  16  26  30  31  32  33  35 0
 6-311+G(2d,p)
 ****
 37  38 0
 6-311+G(2d,p)
 ****
 1  2  3  4  5  17  18  19  20  21  22  23  24  25 0
 3-21G
 ****
 27  28  29  34  36  39  40  41  42  43  44  45  46 0
 3-21G
 ****


