%nproc=1
%NoSave
%Mem=1900MB
#P OB98/GEN NMR

erre ene a

0 1
  C      272.813     111.947      -3.039
  O      271.437     112.229      -3.307
  P      271.116     113.029      -4.660
  C      269.439     111.424      -5.829
  O      269.632     112.646      -5.127
  C      268.259     110.655      -5.237
  O      268.635     109.938      -4.041
  C      267.101     111.553      -4.817
  O      266.373     112.008      -5.946
  C      266.328     110.613      -3.899
  O      265.532     109.700      -4.672
  C      267.461     109.846      -3.196
  N      265.749     110.410       1.592
  C      265.197     109.844       0.496
  N      265.717     109.737      -0.745
  C      266.945     110.278      -0.793
  C      267.637     110.888       0.240
  C      266.989     110.948       1.483
  N      267.543     111.539       2.596
  N      268.871     111.329      -0.193
  C      268.912     111.012      -1.472
  N      267.776     110.367      -1.878
  O      272.052     112.313      -5.742
  O      271.394     114.493      -4.572
  H      264.910     110.235      -5.206
  H      272.786     112.903      -5.992
  H      264.205     109.424       0.634
  H      269.736     111.230      -2.140
  H      267.230     108.783      -3.075
  H      265.654     111.139      -3.215
  H      267.476     112.412      -4.245
  H      267.915     109.929      -5.985
  H      270.344     110.812      -5.777
  H      266.978     111.608       3.428
  H      268.427     112.018       2.507
  H      269.274     111.650      -6.889
  P      266.180     113.590      -6.122
  C      266.376     113.642      -8.682
  O      265.500     113.729      -7.570
  O      267.677     114.073      -6.385
  O      265.463     114.264      -5.001
  H      268.133     113.499      -7.030
  H      265.784     113.719      -9.599
  H      266.902     112.686      -8.676
  H      267.094     114.468      -8.656
  H      272.894     111.414      -2.115
  H      273.358     112.865      -2.970
  H      273.216     111.351      -3.831

 3  4  5  6  7  8  9  10  11  12  22  25  29  30  31  32 0
 6-311+G(2d,p)
 ****
 33  36  37 0
 6-311+G(2d,p)
 ****
 1  2  13  14  15  16  17  18  19  20  21  23  24  26 0
 3-21G
 ****
 27  28  34  35  38  39  40  41  42  43  44  45  46  47  48 0
 3-21G
 ****


