%nproc=1
%NoSave
%Mem=1900MB
#P OB98/GEN NMR

erre ene a

0 1
  C      -74.407     114.309     -63.236
  O      -74.808     112.956     -63.276
  H      -73.333     114.360     -63.427
  H      -74.609     114.743     -62.251
  H      -74.927     114.881     -64.010
  P      -76.331     112.600     -62.910
  C      -77.614     112.761     -60.661
  O      -76.356     112.590     -61.300
  C      -77.414     113.081     -59.181
  O      -76.475     114.164     -59.007
  C      -78.672     113.540     -58.450
  O      -79.583     112.486     -58.181
  C      -78.051     114.105     -57.182
  O      -77.656     113.027     -56.315
  C      -76.809     114.834     -57.758
  N      -77.042     116.259     -57.988
  C      -76.542     117.145     -57.023
  O      -75.942     116.715     -56.036
  N      -76.768     118.490     -57.177
  C      -77.448     118.917     -58.199
  N      -77.683     120.258     -58.275
  C      -77.977     118.025     -59.246
  C      -77.744     116.725     -59.080
  O      -76.903     111.386     -63.565
  O      -77.144     113.942     -63.235
  H      -78.399     112.395     -56.294
  H      -78.096     113.769     -63.035
  H      -78.543     118.433     -60.067
  H      -78.117     116.003     -59.802
  H      -75.947     114.718     -57.090
  H      -78.731     114.747     -56.616
  H      -79.165     114.354     -58.992
  H      -76.973     112.192     -58.708
  H      -77.340     120.834     -57.516
  H      -78.191     111.842     -60.791
  H      -78.420     120.628     -58.866
  H      -78.160     113.592     -61.122
  P      -80.684     112.721     -57.032
  C      -80.646     112.570     -54.428
  O      -79.901     112.683     -55.631
  O      -81.504     111.351     -57.042
  O      -81.563     113.920     -57.209
  H      -82.300     111.419     -57.610
  H      -79.976     112.559     -53.594
  H      -81.212     111.662     -54.443
  H      -81.311     113.404     -54.341

 6  7  8  9  10  11  12  13  14  15  16  26  30  31  32  33  35 0
 6-311+G(2d,p)
 ****
 37  38 0
 6-311+G(2d,p)
 ****
 1  2  3  4  5  17  18  19  20  21  22  23  24  25 0
 3-21G
 ****
 27  28  29  34  36  39  40  41  42  43  44  45  46 0
 3-21G
 ****


