%nproc=1
%NoSave
%Mem=1900MB
#P OB98/GEN NMR

erre ene a

0 1
  C      -64.503    -210.437    -389.654
  O      -65.019    -210.616    -388.350
  H      -63.410    -210.395    -389.595
  H      -64.868    -209.504    -390.089
  H      -64.789    -211.281    -390.289
  P      -66.608    -210.593    -388.147
  C      -66.794    -208.026    -387.894
  O      -67.120    -209.166    -388.673
  C      -67.311    -206.742    -388.563
  O      -66.656    -206.590    -389.856
  C      -68.831    -206.745    -388.823
  O      -69.279    -205.387    -388.756
  C      -68.891    -207.263    -390.244
  O      -70.160    -207.051    -390.819
  C      -67.695    -206.526    -390.858
  N      -67.270    -207.111    -392.121
  C      -67.793    -206.529    -393.275
  O      -68.587    -205.586    -393.198
  N      -67.438    -207.045    -394.495
  C      -66.676    -208.094    -394.554
  N      -66.376    -208.569    -395.787
  C      -66.147    -208.779    -393.349
  C      -66.473    -208.230    -392.178
  O      -67.093    -210.967    -386.786
  O      -67.154    -211.604    -389.259
  H      -70.192    -207.408    -391.737
  H      -67.420    -212.443    -388.841
  H      -65.529    -209.660    -393.454
  H      -66.135    -208.657    -391.242
  H      -67.935    -205.468    -391.022
  H      -68.719    -208.346    -390.266
  H      -69.384    -207.362    -388.103
  H      -67.019    -205.883    -387.949
  H      -66.770    -208.080    -396.585
  H      -65.704    -207.983    -387.808
  H      -65.806    -209.390    -395.959
  H      -67.227    -208.117    -386.893
  P      -70.163    -204.815    -387.550
  C      -72.191    -206.355    -387.943
  O      -71.170    -205.950    -387.035
  O      -70.822    -203.507    -387.839
  O      -69.132    -204.654    -386.328
  H      -69.415    -203.903    -385.759
  H      -72.794    -207.112    -387.487
  H      -71.743    -206.744    -388.833
  H      -72.803    -205.513    -388.191

 6  7  8  9  10  11  12  13  14  15  16  26  30  31  32  33  35 0
 6-311+G(2d,p)
 ****
 37  38 0
 6-311+G(2d,p)
 ****
 1  2  3  4  5  17  18  19  20  21  22  23  24  25 0
 3-21G
 ****
 27  28  29  34  36  39  40  41  42  43  44  45  46 0
 3-21G
 ****


