%nproc=1
%NoSave
%Mem=1900MB
#P OB98/GEN NMR

erre ene a

0 1
  C     -507.253    1061.873    -223.503
  O     -507.441    1063.136    -222.881
  P     -507.849    1064.380    -223.822
  C     -505.411    1065.249    -223.647
  O     -506.807    1065.538    -223.487
  C     -504.587    1066.517    -223.532
  O     -505.146    1067.548    -224.407
  C     -504.538    1067.163    -222.152
  O     -503.583    1066.508    -221.301
  C     -504.106    1068.574    -222.483
  O     -502.681    1068.621    -222.663
  C     -504.812    1068.840    -223.818
  N     -506.857    1073.222    -222.325
  C     -505.551    1072.811    -222.308
  N     -504.642    1073.696    -221.867
  N     -505.155    1071.613    -222.698
  C     -506.161    1070.857    -223.181
  C     -507.522    1071.150    -223.254
  C     -507.935    1072.443    -222.755
  O     -509.097    1072.836    -222.692
  N     -508.214    1070.109    -223.814
  C     -507.303    1069.213    -224.113
  N     -506.042    1069.593    -223.714
  O     -509.212    1064.897    -223.149
  O     -508.044    1064.044    -225.261
  H     -502.275    1068.434    -221.784
  H     -509.756    1065.358    -223.817
  H     -507.108    1074.154    -222.038
  H     -507.525    1068.255    -224.594
  H     -504.165    1069.341    -224.540
  H     -504.371    1069.289    -221.699
  H     -504.857    1074.664    -221.669
  H     -505.538    1067.173    -221.706
  H     -503.673    1073.435    -221.876
  H     -503.572    1066.302    -223.891
  H     -505.243    1064.786    -224.624
  H     -505.113    1064.535    -222.864
  P     -504.199    1065.728    -220.028
  C     -502.600    1066.818    -218.271
  O     -502.982    1065.652    -218.995
  O     -504.343    1064.235    -220.561
  O     -505.486    1066.270    -219.519
  H     -505.044    1063.746    -220.068
  H     -503.518    1067.400    -218.017
  H     -501.938    1067.415    -218.871
  H     -502.123    1066.510    -217.347
  H     -506.988    1061.147    -222.763
  H     -506.470    1061.946    -224.228
  H     -508.160    1061.575    -223.986

 3  4  5  6  7  8  9  10  11  12  23  26  30  31  33  0
 6-311+G(2d,p)
 ****
 35  36  37  38 0
 6-311+G(2d,p)
 ****
 1  2  13  14  15  16  17  18  19  20  21  22  24  25  27  28  29 0
 3-21G
 ****
 32  34  39  40  41  42  43  44  45  46  47  48  49 0
 3-21G
 ****


