%nproc=1
%NoSave
%Mem=1900MB
#P OB98/GEN NMR

erre ene a

0 1
  C     -177.591     -91.183     -67.849
  O     -176.939     -90.105     -68.489
  H     -178.551     -90.834     -67.462
  H     -176.982     -91.533     -67.012
  H     -177.770     -92.003     -68.551
  P     -175.665     -90.455     -69.394
  C     -173.101     -90.184     -69.123
  O     -174.362     -90.246     -68.475
  C     -171.982     -90.014     -68.094
  O     -172.010     -88.648     -67.601
  C     -172.104     -90.950     -66.884
  O     -170.795     -91.386     -66.503
  C     -172.680     -90.054     -65.801
  O     -172.361     -90.508     -64.487
  C     -172.062     -88.708     -66.162
  N     -172.363     -85.387     -62.382
  C     -171.385     -86.318     -62.678
  N     -170.330     -86.377     -61.837
  N     -171.437     -87.118     -63.710
  C     -172.531     -86.923     -64.486
  C     -173.571     -86.040     -64.295
  C     -173.515     -85.181     -63.134
  O     -174.362     -84.354     -62.806
  N     -174.514     -86.169     -65.285
  C     -174.045     -87.123     -66.067
  N     -172.843     -87.606     -65.628
  O     -175.600     -89.228     -70.421
  O     -175.727     -91.763     -70.112
  H     -172.739     -89.861     -63.853
  H     -175.753     -89.549     -71.329
  H     -172.281     -84.805     -61.567
  H     -174.536     -87.505     -66.953
  H     -171.040     -88.599     -65.775
  H     -173.773     -90.021     -65.894
  H     -170.203     -85.758     -61.051
  H     -172.735     -91.819     -67.078
  H     -169.582     -87.025     -62.053
  H     -171.019     -90.148     -68.601
  H     -173.095     -89.333     -69.812
  H     -172.941     -91.106     -69.695
  P     -170.706     -92.663     -65.536
  C     -169.961     -93.147     -63.100
  O     -169.978     -92.216     -64.175
  O     -169.621     -93.594     -66.257
  O     -172.007     -93.377     -65.358
  H     -170.061     -94.366     -66.659
  H     -169.447     -92.718     -62.265
  H     -169.458     -94.039     -63.409
  H     -170.965     -93.384     -62.817

 6  7  8  9  10  11  12  13  14  15  26  29  33  34 0
 6-311+G(2d,p)
 ****
 36  38  39  40  41 0
 6-311+G(2d,p)
 ****
 1  2  3  4  5  16  17  18  19  20  21  22  23  24  25 0
 3-21G
 ****
 27  28  30  31  32  35  37  42  43  44  45  46  47 0
 3-21G
 ****
 48  49 0
 3-21G
 ****


