%nproc=1
%NoSave
%Mem=1900MB
#P OB98/GEN NMR

erre ene a

0 1
  C     -623.270     160.138    -891.350
  O     -623.472     161.085    -892.380
  H     -624.039     159.363    -891.430
  H     -623.338     160.611    -890.370
  H     -622.281     159.673    -891.470
  P     -622.463     162.333    -892.430
  C     -622.071     161.765    -894.900
  O     -621.462     161.991    -893.640
  C     -621.390     160.592    -895.620
  O     -621.667     159.375    -894.860
  C     -621.894     160.359    -897.050
  O     -620.807     159.978    -897.890
  C     -622.871     159.199    -896.900
  O     -623.018     158.469    -898.120
  C     -622.236     158.406    -895.750
  N     -623.527     153.647    -894.440
  C     -622.430     154.156    -895.020
  N     -622.151     155.439    -895.330
  C     -623.157     156.254    -894.910
  C     -624.343     155.879    -894.310
  C     -624.516     154.507    -894.080
  N     -625.656     153.972    -893.510
  N     -625.122     156.998    -894.070
  C     -624.427     158.010    -894.530
  N     -623.236     157.613    -895.050
  O     -621.805     162.677    -891.130
  O     -623.389     163.475    -893.050
  H     -623.668     157.764    -897.980
  H     -623.915     163.146    -893.800
  H     -621.654     153.429    -895.300
  H     -624.754     159.058    -894.510
  H     -621.459     157.718    -896.110
  H     -623.862     159.590    -896.610
  H     -622.387     161.254    -897.470
  H     -620.302     160.739    -895.600
  H     -621.986     162.671    -895.530
  H     -625.703     152.979    -893.350
  H     -626.394     154.599    -893.210
  H     -623.128     161.564    -894.750
  P     -619.589     160.994    -898.070
  C     -617.208     160.018    -897.790
  O     -618.369     160.527    -897.130
  O     -619.932     162.450    -898.020
  O     -619.052     160.605    -899.540
  H     -618.758     161.438    -900.000
  H     -616.474     159.744    -897.061
  H     -616.806     160.771    -898.435
  H     -617.475     159.158    -898.368

 6  7  8  9  10  11  12  13  14  15  25  28  32  33  34  35 0
 6-311+G(2d,p)
 ****
 36  39  40 0
 6-311+G(2d,p)
 ****
 1  2  3  4  5  16  17  18  19  20  21  22  23  24 0
 3-21G
 ****
 26  27  29  30  31  37  38  41  42  43  44  45  46  47 0
 3-21G
 ****
 48 0
 3-21G
 ****


