%nproc=1
%NoSave
%Mem=1900MB
#P OB98/GEN NMR

erre ene a

0 1
  C      -83.490     279.199    -171.385
  O      -83.044     280.530    -171.630
  P      -84.044     281.711    -171.190
  C      -86.103     282.922    -172.215
  O      -85.141     281.887    -172.353
  C      -86.756     283.243    -173.560
  O      -85.863     283.953    -174.443
  C      -87.202     282.004    -174.321
  O      -88.436     281.531    -173.805
  C      -87.316     282.542    -175.748
  O      -88.592     283.180    -175.960
  C      -86.181     283.570    -175.810
  N      -83.537     283.658    -180.136
  C      -84.813     284.122    -179.871
  N      -85.464     284.711    -180.894
  N      -85.392     284.013    -178.703
  C      -84.618     283.403    -177.771
  C      -83.335     282.933    -177.912
  C      -82.704     283.046    -179.211
  O      -81.569     282.677    -179.491
  N      -82.854     282.431    -176.727
  C      -83.891     282.487    -175.908
  N      -84.967     283.122    -176.476
  O      -83.140     283.030    -171.306
  O      -84.594     281.540    -169.811
  H      -88.757     283.819    -175.251
  H      -82.951     283.379    -170.415
  H      -83.140     283.761    -181.056
  H      -83.911     282.098    -174.903
  H      -86.496     284.483    -176.338
  H      -87.246     281.740    -176.493
  H      -85.077     284.832    -181.820
  H      -86.424     281.231    -174.272
  H      -86.401     285.060    -180.715
  H      -87.622     283.890    -173.362
  H      -85.627     283.826    -171.807
  H      -86.853     282.610    -171.477
  P      -88.485     280.023    -173.251
  C      -88.088     277.701    -174.330
  O      -87.816     279.083    -174.357
  O      -90.043     279.661    -173.328
  O      -87.962     279.857    -171.861
  H      -90.314     279.205    -172.504
  H      -88.033     277.308    -175.351
  H      -89.084     277.490    -173.924
  H      -87.340     277.192    -173.716
  H      -82.745     278.506    -171.718
  H      -84.402     279.025    -171.917
  H      -83.658     279.066    -170.337

 3  4  5  6  7  8  9  10  11  12  23  26  30  31 0
 6-311+G(2d,p)
 ****
 33  35  36  37  38 0
 6-311+G(2d,p)
 ****
 1  2  13  14  15  16  17  18  19  20  21  22  24  25 0
 3-21G
 ****
 27  28  29  32  34  39  40  41  42  43  44  45  46  47  48  49 0
 3-21G
 ****


