%nproc=1
%NoSave
%Mem=1900MB
#P OB98/GEN NMR

erre ene a

0 1
  C     -370.842    -888.620     336.045
  O     -371.180    -889.850     335.429
  H     -369.785    -888.630     336.340
  H     -370.990    -887.810     335.326
  H     -371.470    -888.440     336.918
  P     -371.320    -891.140     336.372
  C     -373.601    -891.710     335.281
  O     -372.891    -891.440     336.492
  C     -374.292    -893.080     335.369
  O     -373.273    -894.110     335.218
  C     -375.022    -893.340     336.692
  O     -376.244    -894.050     336.407
  C     -374.083    -894.250     337.446
  O     -374.756    -895.080     338.403
  C     -373.458    -895.040     336.297
  N     -371.029    -899.470     337.031
  C     -372.185    -899.160     336.377
  N     -372.721    -897.940     336.188
  C     -371.946    -896.980     336.685
  C     -370.740    -897.130     337.380
  C     -370.309    -898.460     337.573
  N     -369.188    -898.790     338.293
  N     -370.265    -895.910     337.785
  C     -371.161    -895.030     337.380
  N     -372.186    -895.630     336.712
  O     -370.946    -890.540     337.824
  O     -370.460    -892.300     336.015
  H     -374.087    -895.560     338.924
  H     -369.982    -890.590     337.958
  H     -372.729    -900.000     335.962
  H     -371.134    -893.960     337.569
  H     -374.102    -895.870     335.947
  H     -373.336    -893.660     337.978
  H     -375.262    -892.420     337.254
  H     -374.971    -893.170     334.515
  H     -372.894    -891.720     334.451
  H     -369.007    -899.770     338.460
  H     -368.701    -898.050     338.789
  H     -374.341    -890.930     335.117
  P     -377.606    -893.210     336.372
  C     -378.208    -893.970     333.946
  O     -377.968    -892.880     334.845
  O     -377.166    -891.780     336.963
  O     -378.714    -893.810     337.170
  H     -377.900    -891.380     337.462
  H     -378.435    -893.587     332.973
  H     -379.033    -894.551     334.302
  H     -377.335    -894.586     333.892

 6  7  8  9  10  11  12  13  14  15  25  28  32  33  34  35 0
 6-311+G(2d,p)
 ****
 36  39  40 0
 6-311+G(2d,p)
 ****
 1  2  3  4  5  16  17  18  19  20  21  22  23  24 0
 3-21G
 ****
 26  27  29  30  31  37  38  41  42  43  44  45  46  47 0
 3-21G
 ****
 48 0
 3-21G
 ****


