%nproc=1
%NoSave
%Mem=1900MB
#P OB98/GEN NMR

erre ene a

0 1
  C      -59.628      -1.858     155.685
  O      -59.179      -2.909     156.515
  H      -59.419      -2.119     154.644
  H      -59.092      -0.938     155.930
  H      -60.704      -1.705     155.801
  P      -59.575      -2.820     158.067
  C      -59.232      -5.379     158.326
  O      -58.890      -4.081     158.786
  C      -58.401      -6.432     159.053
  O      -58.275      -6.095     160.453
  C      -58.990      -7.838     159.005
  O      -58.667      -8.505     157.792
  C      -58.282      -8.477     160.188
  O      -56.928      -8.810     159.823
  C      -58.291      -7.336     161.213
  N      -60.148      -9.003     165.624
  C      -58.913      -9.219     165.043
  N      -58.053      -9.999     165.731
  N      -58.554      -8.721     163.889
  C      -59.520      -7.970     163.308
  C      -60.779      -7.681     163.786
  C      -61.160      -8.232     165.066
  O      -62.231      -8.053     165.637
  N      -61.470      -6.877     162.920
  C      -60.642      -6.694     161.912
  N      -59.446      -7.342     162.095
  O      -61.134      -3.196     158.075
  O      -59.333      -1.499     158.715
  H      -56.494      -7.976     159.565
  H      -61.581      -2.666     158.763
  H      -60.377      -9.420     166.510
  H      -60.856      -6.104     161.032
  H      -57.400      -7.342     161.851
  H      -58.761      -9.400     160.517
  H      -58.284     -10.454     166.601
  H      -60.070      -7.828     159.188
  H      -57.130     -10.145     165.342
  H      -57.392      -6.421     158.622
  H      -59.037      -5.444     157.251
  H      -60.298      -5.551     158.506
  P      -59.786      -9.463     157.150
  C      -59.208      -8.319     154.892
  O      -59.441      -9.539     155.585
  O      -61.104      -8.557     157.194
  O      -59.975     -10.767     157.846
  H      -61.899      -9.124     157.179
  H      -58.992      -8.528     153.865
  H      -58.378      -7.810     155.335
  H      -60.079      -7.701     154.955

 6  7  8  9  10  11  12  13  14  15  26  29  33  34 0
 6-311+G(2d,p)
 ****
 36  38  39  40  41 0
 6-311+G(2d,p)
 ****
 1  2  3  4  5  16  17  18  19  20  21  22  23  24  25 0
 3-21G
 ****
 27  28  30  31  32  35  37  42  43  44  45  46  47 0
 3-21G
 ****
 48  49 0
 3-21G
 ****


