%nproc=1
%NoSave
%Mem=1900MB
#P OB98/GEN NMR

erre ene a

0 1
  C     -310.543      40.101       7.523
  O     -309.764      40.816       8.461
  H     -310.696      40.700       6.619
  H     -310.015      39.182       7.254
  H     -311.510      39.837       7.962
  P     -310.326      42.254       8.903
  C     -310.771      44.464       7.622
  O     -310.035      43.251       7.678
  C     -310.590      45.129       6.264
  O     -309.196      45.415       6.032
  C     -311.030      44.282       5.074
  O     -312.440      44.303       4.903
  C     -310.315      45.002       3.938
  O     -311.067      46.167       3.554
  C     -308.992      45.422       4.593
  N     -304.579      44.966       2.003
  C     -305.459      45.988       2.112
  N     -306.615      46.033       2.807
  C     -306.828      44.877       3.456
  C     -306.020      43.751       3.441
  C     -304.850      43.819       2.667
  N     -303.968      42.763       2.548
  N     -306.554      42.759       4.237
  C     -307.665      43.273       4.725
  N     -307.875      44.552       4.276
  O     -309.280      42.733      10.024
  O     -311.724      42.265       9.421
  H     -311.064      46.767       4.324
  H     -309.761      43.236      10.709
  H     -305.200      46.891       1.565
  H     -308.337      42.767       5.405
  H     -308.716      46.446       4.317
  H     -310.194      44.379       3.047
  H     -310.648      43.260       5.154
  H     -311.128      46.087       6.282
  H     -310.413      45.144       8.406
  H     -303.058      42.935       2.150
  H     -304.176      41.910       3.058
  H     -311.828      44.244       7.802
  P     -313.142      42.948       4.396
  C     -312.963      41.489       2.258
  O     -312.473      42.615       2.979
  O     -314.618      43.432       4.004
  O     -313.170      41.838       5.394
  H     -315.240      42.679       4.068
  H     -312.425      41.393       1.338
  H     -314.004      41.624       2.050
  H     -312.829      40.604       2.844

 6  7  8  9  10  11  12  13  14  15  25  28  32  33  34  35 0
 6-311+G(2d,p)
 ****
 36  39  40 0
 6-311+G(2d,p)
 ****
 1  2  3  4  5  16  17  18  19  20  21  22  23  24 0
 3-21G
 ****
 26  27  29  30  31  37  38  41  42  43  44  45  46  47  48 0
 3-21G
 ****


