%nproc=1
%NoSave
%Mem=1900MB
#P OB98/GEN NMR

erre ene a

0 1
  C     -114.087     118.846      85.358
  O     -113.176     117.917      84.802
  H     -115.016     118.326      85.598
  H     -114.300     119.635      84.633
  H     -113.677     119.281      86.274
  P     -111.705     118.459      84.461
  C     -110.722     119.798      82.469
  O     -111.876     119.491      83.239
  C     -110.938     121.074      81.657
  O     -112.029     120.853      80.711
  C     -111.305     122.306      82.500
  O     -110.714     123.457      81.885
  C     -112.813     122.399      82.328
  O     -113.315     123.705      82.597
  C     -112.945     121.954      80.870
  N     -117.631     123.711      80.337
  C     -116.452     124.371      80.632
  N     -116.532     125.707      80.814
  N     -115.297     123.774      80.741
  C     -115.357     122.441      80.500
  C     -116.456     121.671      80.205
  C     -117.737     122.341      80.115
  O     -118.817     121.807      79.875
  N     -116.108     120.350      80.061
  C     -114.803     120.324      80.266
  N     -114.302     121.569      80.536
  O     -111.011     117.185      83.785
  O     -110.924     118.970      85.626
  H     -113.049     123.947      83.510
  H     -110.521     116.672      84.456
  H     -118.496     124.217      80.278
  H     -114.180     119.439      80.235
  H     -112.658     122.745      80.165
  H     -113.315     121.693      83.001
  H     -117.379     126.241      80.700
  H     -110.993     122.246      83.549
  H     -115.674     126.215      80.987
  H     -110.039     121.264      81.059
  H     -110.521     118.966      81.784
  H     -109.863     119.923      83.138
  P     -109.215     123.846      82.297
  C     -107.993     124.653      84.447
  O     -109.204     124.203      83.860
  O     -109.017     125.278      81.609
  O     -108.181     122.867      81.847
  H     -108.073     125.423      81.409
  H     -108.151     124.847      85.487
  H     -107.673     125.551      83.961
  H     -107.241     123.900      84.335

 6  7  8  9  10  11  12  13  14  15  26  29  33  34 0
 6-311+G(2d,p)
 ****
 36  38  39  40  41 0
 6-311+G(2d,p)
 ****
 1  2  3  4  5  16  17  18  19  20  21  22  23  24  25 0
 3-21G
 ****
 27  28  30  31  32  35  37  42  43  44  45  46  47 0
 3-21G
 ****
 48  49 0
 3-21G
 ****


