%nproc=1
%NoSave
%Mem=1900MB
#P OB98/GEN NMR

erre ene a

0 1
  C      -19.617      19.063      57.474
  O      -20.272      18.651      56.291
  H      -20.370      19.294      58.232
  H      -19.021      19.960      57.285
  H      -18.973      18.262      57.846
  P      -19.333      18.365      55.020
  C      -19.413      20.885      54.345
  O      -18.620      19.781      54.755
  C      -18.710      22.187      54.711
  O      -18.679      22.363      56.144
  C      -17.256      22.258      54.260
  O      -17.118      22.562      52.883
  C      -16.752      23.385      55.142
  O      -17.215      24.646      54.624
  C      -17.443      23.048      56.483
  N      -16.619      22.216      57.361
  C      -16.144      22.818      58.532
  O      -16.409      23.992      58.785
  N      -15.348      22.083      59.377
  C      -15.059      20.853      59.087
  N      -14.256      20.177      59.953
  C      -15.552      20.175      57.874
  C      -16.315      20.906      57.066
  O      -20.367      18.264      53.802
  O      -18.404      17.204      55.138
  H      -16.904      24.705      53.703
  H      -19.874      18.212      52.948
  H      -15.275      19.151      57.669
  H      -16.711      20.475      56.153
  H      -17.716      23.962      57.024
  H      -15.663      23.438      55.191
  H      -16.709      21.344      54.516
  H      -19.297      23.016      54.293
  H      -13.883      20.686      60.743
  H      -20.382      20.821      54.851
  H      -13.834      19.286      59.722
  H      -19.572      20.850      53.263
  P      -15.990      21.773      52.055
  C      -14.232      23.598      52.620
  O      -14.570      22.219      52.654
  O      -16.026      22.488      50.626
  O      -16.203      20.295      51.949
  H      -15.905      21.842      49.904
  H      -13.263      23.738      53.051
  H      -14.955      24.156      53.177
  H      -14.223      23.938      51.606

 6  7  8  9  10  11  12  13  14  15  16  26  30  31  32  33  35 0
 6-311+G(2d,p)
 ****
 37  38 0
 6-311+G(2d,p)
 ****
 1  2  3  4  5  17  18  19  20  21  22  23  24  25 0
 3-21G
 ****
 27  28  29  34  36  39  40  41  42  43  44  45  46 0
 3-21G
 ****


