%nproc=1
%NoSave
%Mem=1900MB
#P OB98/GEN NMR

erre ene a

0 1
  C      140.640      35.991      14.542
  O      141.941      36.164      15.066
  H      140.519      34.947      14.243
  H      140.496      36.629      13.667
  H      139.894      36.231      15.304
  P      142.359      37.664      15.462
  C      143.805      37.780      13.295
  O      142.739      38.333      14.051
  C      143.925      38.501      11.957
  O      142.831      38.137      11.083
  C      143.875      40.023      12.050
  O      145.092      40.600      12.489
  C      143.579      40.364      10.600
  O      144.770      40.190       9.810
  C      142.520      39.293      10.258
  N      141.148      39.746      10.504
  C      140.141      38.778      10.408
  O      140.414      37.613      10.129
  N      138.836      39.163      10.598
  C      138.558      40.398      10.879
  N      137.249      40.719      11.054
  C      139.587      41.446      11.002
  C      140.844      41.057      10.805
  O      143.789      37.479      16.157
  O      141.369      38.428      16.275
  H      145.388      40.893      10.081
  H      144.206      38.362      16.310
  H      139.307      42.466      11.226
  H      141.656      41.772      10.880
  H      142.601      38.980       9.211
  H      143.250      41.392      10.455
  H      143.037      40.361      12.670
  H      144.852      38.163      11.477
  H      136.561      39.991      10.904
  H      143.597      36.717      13.133
  H      136.921      41.673      11.126
  H      144.746      37.879      13.844
  P      144.994      41.879      13.455
  C      146.142      43.606      11.881
  O      144.943      43.172      12.512
  O      146.450      41.954      14.109
  O      143.916      41.802      14.492
  H      146.404      42.282      15.028
  H      145.940      44.475      11.291
  H      146.516      42.826      11.251
  H      146.872      43.843      12.627

 6  7  8  9  10  11  12  13  14  15  16  26  30  31  32  33  35 0
 6-311+G(2d,p)
 ****
 37  38 0
 6-311+G(2d,p)
 ****
 1  2  3  4  5  17  18  19  20  21  22  23  24  25 0
 3-21G
 ****
 27  28  29  34  36  39  40  41  42  43  44  45  46 0
 3-21G
 ****


