%nproc=1
%NoSave
%Mem=1900MB
#P OB98/GEN NMR

erre ene a

0 1
  C      303.037    -128.180      34.985
  O      304.411    -128.589      34.927
  P      304.898    -130.065      35.323
  C      304.469    -131.532      33.245
  O      305.433    -130.817      34.012
  C      305.071    -132.791      32.613
  O      304.033    -133.661      32.119
  C      305.985    -132.535      31.421
  O      307.249    -132.050      31.836
  C      306.009    -133.914      30.768
  O      306.964    -134.773      31.416
  C      304.570    -134.411      31.014
  N      303.730    -134.295      29.830
  C      303.873    -135.289      28.858
  O      304.718    -136.176      28.996
  N      303.072    -135.241      27.743
  C      302.257    -134.248      27.578
  N      301.483    -134.259      26.456
  C      302.139    -133.132      28.530
  C      302.896    -133.218      29.625
  O      303.891    -130.846      36.104
  O      306.227    -129.844      36.192
  H      306.866    -135.652      31.008
  H      306.303    -130.563      36.846
  H      301.469    -132.306      28.341
  H      302.865    -132.445      30.382
  H      304.576    -135.460      31.336
  H      306.281    -133.875      29.709
  H      305.507    -131.820      30.739
  H      305.614    -133.333      33.400
  H      301.585    -135.043      25.826
  H      304.104    -130.870      32.452
  H      300.817    -133.534      26.233
  H      303.629    -131.798      33.894
  P      307.728    -130.589      31.392
  C      306.338    -128.808      32.606
  O      307.508    -129.606      32.635
  O      307.186    -130.102      30.088
  O      309.326    -130.719      31.330
  H      309.667    -130.121      30.638
  H      306.092    -128.506      33.630
  H      305.492    -129.359      32.183
  H      306.525    -127.912      32.007
  H      302.956    -127.159      34.676
  H      302.677    -128.279      35.988
  H      302.453    -128.797      34.334

 3  4  5  6  7  8  9  10  11  12  13  23  27  28  29  30  32 0
 6-311+G(2d,p)
 ****
 34  35 0
 6-311+G(2d,p)
 ****
 1  2  14  15  16  17  18  19  20  21  22  24  25  26 0
 3-21G
 ****
 31  33  36  37  38  39  40  41  42  43  44  45  46 0
 3-21G
 ****


