%nproc=1
%NoSave
%Mem=1900MB
#P OB98/GEN NMR

erre ene a

0 1
  C      198.240    -174.582    -232.076
  O      197.795    -175.629    -232.933
  P      198.449    -175.731    -234.397
  C      198.856    -178.294    -234.438
  O      199.435    -176.995    -234.350
  C      199.550    -179.257    -233.479
  O      199.256    -178.900    -232.106
  C      199.135    -180.716    -233.621
  O      199.820    -181.369    -234.686
  C      199.578    -181.278    -232.290
  O      200.998    -181.526    -232.301
  C      199.253    -180.127    -231.322
  N      196.885    -180.917    -226.850
  C      198.192    -180.890    -227.185
  N      198.751    -180.682    -228.396
  C      197.791    -180.530    -229.334
  C      196.408    -180.577    -229.152
  C      195.959    -180.762    -227.834
  N      194.628    -180.773    -227.484
  N      195.748    -180.375    -230.346
  C      196.708    -180.220    -231.238
  N      197.961    -180.290    -230.673
  O      199.465    -174.480    -234.432
  O      197.479    -175.695    -235.528
  H      201.238    -181.867    -231.417
  H      199.632    -174.215    -235.351
  H      198.895    -181.039    -226.369
  H      196.551    -180.027    -232.290
  H      200.007    -180.013    -230.534
  H      199.095    -182.238    -232.044
  H      198.044    -180.808    -233.723
  H      200.638    -179.155    -233.618
  H      198.969    -178.669    -235.457
  H      194.387    -180.728    -226.505
  H      193.956    -180.453    -228.191
  H      197.781    -178.228    -234.195
  P      198.924    -182.006    -235.844
  C      200.540    -181.101    -237.668
  O      199.219    -181.136    -237.162
  O      197.430    -181.585    -235.432
  O      199.072    -183.486    -235.997
  H      196.780    -182.218    -235.790
  H      200.510    -180.729    -238.701
  H      200.981    -182.094    -237.672
  H      201.160    -180.419    -237.081
  H      197.720    -174.640    -231.143
  H      198.043    -173.636    -232.536
  H      199.291    -174.683    -231.905

 3  4  5  6  7  8  9  10  11  12  22  25  29  30  31  32 0
 6-311+G(2d,p)
 ****
 33  36  37 0
 6-311+G(2d,p)
 ****
 1  2  13  14  15  16  17  18  19  20  21  23  24  26 0
 3-21G
 ****
 27  28  34  35  38  39  40  41  42  43  44  45  46  47  48 0
 3-21G
 ****


