%nproc=1
%NoSave
%Mem=1900MB
#P OB98/GEN NMR

erre ene a

0 1
  C      -81.122    -202.123     108.962
  O      -80.430    -202.215     107.726
  P      -79.613    -200.921     107.236
  C      -80.655    -199.313     105.486
  O      -80.726    -199.849     106.802
  C      -81.767    -199.883     104.615
  O      -82.986    -199.971     105.376
  C      -82.110    -199.042     103.395
  O      -81.203    -199.266     102.325
  C      -83.496    -199.568     103.055
  O      -83.381    -200.791     102.303
  C      -84.091    -199.849     104.446
  N      -88.627    -197.671     103.878
  C      -88.069    -198.743     103.209
  N      -88.843    -199.334     102.273
  N      -86.863    -199.192     103.435
  C      -86.221    -198.528     104.425
  C      -86.667    -197.449     105.158
  C      -87.984    -196.930     104.862
  O      -88.505    -195.944     105.377
  N      -85.736    -197.060     106.085
  C      -84.746    -197.918     105.939
  N      -84.981    -198.809     104.923
  O      -78.992    -201.393     105.838
  O      -78.564    -200.441     108.178
  H      -84.282    -201.040     102.024
  H      -78.186    -200.876     105.642
  H      -89.566    -197.376     103.676
  H      -83.850    -197.929     106.543
  H      -84.629    -200.803     104.463
  H      -84.081    -198.871     102.445
  H      -89.820    -199.118     102.148
  H      -82.173    -197.979     103.652
  H      -88.465    -200.145     101.799
  H      -81.480    -200.900     104.316
  H      -79.688    -199.572     105.043
  H      -80.732    -198.223     105.545
  P      -80.885    -198.007     101.379
  C      -81.664    -198.242      98.911
  O      -82.031    -198.022     100.259
  O      -79.570    -198.464     100.592
  O      -80.691    -196.722     102.109
  H      -79.057    -197.681     100.309
  H      -80.840    -198.956      98.832
  H      -81.368    -197.292      98.455
  H      -82.525    -198.640      98.372
  H      -81.618    -203.049     109.163
  H      -81.845    -201.336     108.909
  H      -80.425    -201.915     109.746

 3  4  5  6  7  8  9  10  11  12  23  26  30  31  33  0
 6-311+G(2d,p)
 ****
 35  36  37  38 0
 6-311+G(2d,p)
 ****
 1  2  13  14  15  16  17  18  19  20  21  22  24  25  27  28  29 0
 3-21G
 ****
 32  34  39  40  41  42  43  44  45  46  47  48  49 0
 3-21G
 ****


