%nproc=1
%NoSave
%Mem=1900MB
#P OB98/GEN NMR

erre ene a

0 1
  C     -202.572      51.586    -300.706
  O     -203.302      51.381    -299.515
  P     -202.931      50.254    -298.441
  C     -203.480      49.781    -295.941
  O     -203.473      50.731    -297.001
  C     -204.320      50.233    -294.737
  O     -203.646      51.315    -294.063
  C     -205.668      50.785    -295.208
  O     -206.743      49.908    -295.484
  C     -205.994      51.914    -294.240
  O     -206.899      51.509    -293.208
  C     -204.631      52.276    -293.644
  N     -204.740      57.227    -292.525
  C     -205.108      56.151    -291.741
  N     -205.758      56.446    -290.594
  N     -204.876      54.902    -292.067
  C     -204.302      54.762    -293.291
  C     -203.880      55.753    -294.149
  C     -204.104      57.125    -293.754
  O     -203.867      58.108    -294.461
  N     -203.407      55.236    -295.328
  C     -203.584      53.936    -295.203
  N     -204.158      53.604    -293.998
  O     -201.558      49.669    -298.528
  O     -203.980      49.088    -298.828
  H     -206.425      50.891    -292.618
  H     -203.539      48.235    -298.664
  H     -205.015      58.165    -292.258
  H     -203.340      53.199    -295.962
  H     -204.665      52.234    -292.547
  H     -206.480      52.746    -294.764
  H     -206.081      57.380    -290.384
  H     -205.482      51.285    -296.169
  H     -206.192      55.684    -290.081
  H     -204.407      49.430    -293.997
  H     -202.439      49.610    -295.647
  H     -203.869      48.826    -296.314
  P     -208.036      50.238    -296.366
  C     -209.870      48.717    -297.316
  O     -208.474      48.906    -297.142
  O     -207.488      51.170    -297.549
  O     -209.144      50.930    -295.631
  H     -208.219      51.697    -297.923
  H     -210.066      47.674    -297.565
  H     -210.222      49.353    -298.136
  H     -210.415      48.969    -296.403
  H     -203.009      52.391    -301.258
  H     -202.596      50.694    -301.297
  H     -201.558      51.828    -300.466

 3  4  5  6  7  8  9  10  11  12  23  26  30  31 0
 6-311+G(2d,p)
 ****
 33  35  36  37  38 0
 6-311+G(2d,p)
 ****
 1  2  13  14  15  16  17  18  19  20  21  22  24  25 0
 3-21G
 ****
 27  28  29  32  34  39  40  41  42  43  44  45  46  47  48  49 0
 3-21G
 ****


