%nproc=1
%NoSave
%Mem=1900MB
#P OB98/GEN NMR

erre ene a

0 1
  C       55.892     176.146    -122.112
  O       56.619     177.360    -122.119
  P       57.262     177.935    -120.767
  C       56.175     180.126    -119.943
  O       56.063     178.706    -120.021
  C       55.739     180.778    -121.257
  O       54.484     180.224    -121.705
  C       55.519     182.282    -121.161
  O       56.754     182.971    -121.155
  C       54.657     182.532    -122.391
  O       55.461     182.651    -123.574
  C       53.790     181.253    -122.448
  N       52.443     181.470    -121.941
  C       51.761     182.573    -122.469
  O       52.312     183.310    -123.287
  N       50.487     182.840    -122.022
  C       49.959     182.083    -121.109
  N       48.702     182.403    -120.694
  C       50.655     180.932    -120.502
  C       51.883     180.686    -120.960
  O       58.518     178.720    -120.940
  O       57.447     176.621    -119.867
  H       56.113     183.358    -123.390
  H       58.209     176.071    -120.184
  H       50.176     180.337    -119.737
  H       52.468     179.860    -120.567
  H       53.713     180.887    -123.482
  H       54.071     183.455    -122.305
  H       54.938     182.514    -120.256
  H       56.500     180.557    -122.017
  H       48.270     183.221    -121.114
  H       57.220     180.379    -119.745
  H       48.213     181.906    -119.967
  H       55.566     180.491    -119.108
  P       56.812     184.506    -120.700
  C       57.356     186.034    -122.690
  O       56.333     185.400    -121.942
  O       58.092     184.934    -120.057
  O       55.592     184.637    -119.673
  H       55.886     185.145    -118.893
  H       56.950     186.319    -123.666
  H       58.207     185.364    -122.844
  H       57.688     186.935    -122.168
  H       55.546     175.932    -123.101
  H       55.054     176.236    -121.452
  H       56.526     175.352    -121.777

 3  4  5  6  7  8  9  10  11  12  13  23  27  28  29  30  32 0
 6-311+G(2d,p)
 ****
 34  35 0
 6-311+G(2d,p)
 ****
 1  2  14  15  16  17  18  19  20  21  22  24  25  26 0
 3-21G
 ****
 31  33  36  37  38  39  40  41  42  43  44  45  46 0
 3-21G
 ****


