%nproc=1
%NoSave
%Mem=1900MB
#P OB98/GEN NMR

erre ene a

0 1
  C      -41.288    -207.392      23.372
  O      -40.810    -208.479      24.137
  H      -42.174    -207.712      22.818
  H      -40.525    -207.071      22.659
  H      -41.561    -206.557      24.023
  P      -39.576    -208.194      25.119
  C      -40.447    -210.293      26.389
  O      -39.324    -209.554      25.933
  C      -40.920    -211.248      25.293
  O      -39.872    -212.225      25.047
  C      -42.190    -212.021      25.667
  O      -42.997    -212.183      24.498
  C      -41.656    -213.371      26.113
  O      -42.605    -214.424      26.015
  C      -40.458    -213.537      25.174
  N      -39.479    -214.497      25.675
  C      -39.399    -215.728      25.033
  O      -40.040    -216.037      24.027
  N      -38.534    -216.633      25.592
  C      -37.781    -216.441      26.713
  O      -37.042    -217.299      27.180
  C      -37.914    -215.124      27.353
  C      -38.744    -214.229      26.815
  O      -40.201    -207.218      26.224
  O      -38.357    -207.625      24.476
  H      -40.092    -206.286      25.956
  H      -42.130    -215.271      26.134
  H      -38.463    -217.530      25.137
  H      -37.339    -214.940      28.251
  H      -38.877    -213.254      27.271
  H      -40.797    -213.843      24.174
  H      -41.323    -213.314      27.158
  H      -42.769    -211.533      26.452
  H      -41.058    -210.683      24.363
  H      -41.257    -209.600      26.637
  H      -40.171    -210.854      27.289
  P      -44.408    -211.412      24.463
  C      -44.150    -210.911      21.909
  O      -44.919    -211.501      22.943
  O      -43.941    -209.895      24.637
  O      -45.366    -211.905      25.493
  H      -43.105    -209.690      24.183
  H      -44.637    -211.066      20.969
  H      -43.179    -211.360      21.886
  H      -44.053    -209.861      22.092

 6  7  8  9  10  11  12  13  14  15  16  27  31  32  33  34  35 0
 6-311+G(2d,p)
 ****
 36  37 0
 6-311+G(2d,p)
 ****
 1  2  3  4  5  17  18  19  20  21  22  23  24  25 0
 3-21G
 ****
 26  28  29  30  38  39  40  41  42  43  44  45 0
 3-21G
 ****


