%nproc=1
%NoSave
%Mem=1900MB
#P OB98/GEN NMR

erre ene a

0 1
  C      543.213    -647.393    -236.073
  O      543.938    -646.162    -235.941
  P      545.149    -646.101    -234.898
  C      547.262    -644.569    -234.947
  O      545.838    -644.659    -234.988
  C      547.734    -643.212    -235.485
  O      547.630    -643.145    -236.924
  C      546.919    -642.040    -234.963
  O      547.350    -641.635    -233.670
  C      547.255    -640.967    -235.982
  O      548.547    -640.389    -235.686
  C      547.335    -641.769    -237.291
  N      544.639    -639.262    -240.856
  C      545.835    -639.002    -240.278
  N      546.470    -639.712    -239.320
  C      545.773    -640.793    -238.983
  C      544.547    -641.194    -239.485
  C      543.975    -640.374    -240.472
  N      542.757    -640.644    -241.057
  N      544.125    -642.366    -238.885
  C      545.084    -642.675    -238.043
  N      546.096    -641.757    -238.062
  O      546.242    -647.073    -235.548
  O      544.789    -646.546    -233.520
  H      548.496    -640.032    -234.782
  H      546.736    -647.536    -234.853
  H      546.340    -638.102    -240.615
  H      545.102    -643.552    -237.414
  H      548.132    -641.428    -237.953
  H      546.540    -640.137    -235.994
  H      545.848    -642.255    -234.992
  H      548.784    -643.087    -235.202
  H      547.700    -645.380    -235.537
  H      542.415    -640.029    -241.781
  H      542.259    -641.485    -240.787
  H      547.595    -644.720    -233.912
  P      546.368    -641.943    -232.435
  C      546.576    -641.487    -229.891
  O      546.940    -641.106    -231.204
  O      546.703    -643.474    -232.080
  O      544.922    -641.739    -232.738
  H      545.904    -643.911    -231.722
  H      547.281    -641.034    -229.183
  H      546.607    -642.580    -229.776
  H      545.566    -641.130    -229.670
  H      542.440    -647.275    -236.803
  H      542.777    -647.653    -235.131
  H      543.881    -648.169    -236.383

 3  4  5  6  7  8  9  10  11  12  22  25  29  30  31  32 0
 6-311+G(2d,p)
 ****
 33  36  37 0
 6-311+G(2d,p)
 ****
 1  2  13  14  15  16  17  18  19  20  21  23  24  26 0
 3-21G
 ****
 27  28  34  35  38  39  40  41  42  43  44  45  46  47  48 0
 3-21G
 ****


