%nproc=1
%NoSave
%Mem=1900MB
#P OB98/GEN NMR

erre ene a

0 1
  C       -0.166     384.215     289.361
  O        1.143     384.291     289.879
  H       -0.549     383.205     289.525
  H       -0.144     384.413     288.286
  H       -0.833     384.928     289.852
  P        1.766     385.731     290.191
  C        3.689     385.237     288.540
  O        2.683     386.159     288.943
  C        3.758     385.102     287.019
  O        2.573     384.425     286.540
  C        3.808     386.456     286.310
  O        5.112     386.992     286.158
  C        3.193     386.127     284.952
  O        4.188     385.672     284.023
  C        2.206     384.998     285.279
  N       -2.319     385.242     282.907
  C       -1.100     384.825     282.407
  N       -1.085     384.467     281.105
  N       -0.005     384.787     283.120
  C       -0.154     385.269     284.374
  C       -1.307     385.725     284.974
  C       -2.529     385.699     284.201
  O       -3.636     386.042     284.602
  N       -1.065     386.179     286.249
  C        0.243     386.072     286.387
  N        0.828     385.450     285.306
  O        2.855     385.428     291.331
  O        0.790     386.771     290.654
  H        4.634     384.894     284.420
  H        2.933     386.200     291.920
  H       -3.130     385.223     282.321
  H        0.807     386.384     287.254
  H        2.260     384.194     284.533
  H        2.728     387.011     284.511
  H       -1.878     384.560     280.490
  H        3.160     387.180     286.812
  H       -0.180     384.339     280.651
  H        4.617     384.475     286.750
  H        3.430     384.280     288.991
  H        4.662     385.537     288.943
  P        5.608     388.208     287.068
  C        6.280     389.609     284.949
  O        5.599     389.537     286.184
  O        7.170     387.903     287.257
  O        4.904     388.361     288.377
  H        7.334     387.477     288.118
  H        6.146     390.582     284.524
  H        5.887     388.871     284.281
  H        7.323     389.429     285.106

 6  7  8  9  10  11  12  13  14  15  26  29  33  34 0
 6-311+G(2d,p)
 ****
 36  38  39  40  41 0
 6-311+G(2d,p)
 ****
 1  2  3  4  5  16  17  18  19  20  21  22  23  24  25 0
 3-21G
 ****
 27  28  30  31  32  35  37  42  43  44  45  46  47 0
 3-21G
 ****
 48  49 0
 3-21G
 ****


