%nproc=1
%NoSave
%Mem=1900MB
#P OB98/GEN NMR

erre ene a

0 1
  C      121.135    -215.712     258.500
  O      121.516    -216.392     259.699
  P      120.328    -217.071     260.536
  C      118.821    -218.700     259.190
  O      120.035    -218.516     259.902
  C      118.574    -220.186     258.917
  O      119.542    -220.744     258.009
  C      118.633    -221.049     260.169
  O      117.413    -220.948     260.887
  C      118.869    -222.433     259.582
  O      117.628    -223.048     259.173
  C      119.752    -222.137     258.359
  N      123.316    -225.682     259.006
  C      121.937    -225.804     258.993
  N      121.442    -227.050     259.147
  N      121.124    -224.793     258.836
  C      121.760    -223.606     258.691
  C      123.113    -223.365     258.662
  C      124.004    -224.491     258.837
  O      125.229    -224.440     258.837
  N      123.382    -222.037     258.432
  C      122.191    -221.465     258.453
  N      121.172    -222.380     258.541
  O      119.046    -216.202     260.130
  O      120.555    -217.057     262.011
  H      117.128    -223.312     259.965
  H      118.758    -215.662     260.890
  H      123.896    -226.494     259.137
  H      122.014    -220.402     258.380
  H      119.449    -222.736     257.490
  H      119.321    -223.113     260.310
  H      122.010    -227.870     259.267
  H      119.488    -220.752     260.792
  H      120.434    -227.159     259.130
  H      117.582    -220.273     258.453
  H      118.851    -218.153     258.248
  H      118.001    -218.271     259.777
  P      117.439    -220.195     262.303
  C      117.179    -217.724     263.052
  O      117.503    -218.623     262.010
  O      118.896    -220.544     262.873
  O      116.372    -220.628     263.251
  H      118.827    -220.785     263.816
  H      117.741    -216.799     262.907
  H      117.425    -218.138     264.035
  H      116.108    -217.501     263.014
  H      122.005    -215.302     258.030
  H      120.454    -214.922     258.739
  H      120.661    -216.402     257.834

 3  4  5  6  7  8  9  10  11  12  23  26  30  31 0
 6-311+G(2d,p)
 ****
 33  35  36  37  38 0
 6-311+G(2d,p)
 ****
 1  2  13  14  15  16  17  18  19  20  21  22  24  25 0
 3-21G
 ****
 27  28  29  32  34  39  40  41  42  43  44  45  46  47  48  49 0
 3-21G
 ****


