%nproc=1
%NoSave
%Mem=1900MB
#P OB98/GEN NMR

erre ene a

0 1
  C      249.383      86.581     440.182
  O      250.679      86.663     439.626
  H      248.782      85.906     439.568
  H      248.910      87.566     440.182
  H      249.421      86.187     441.202
  P      251.816      87.460     440.428
  C      253.511      85.638     439.752
  O      253.224      87.033     439.792
  C      255.017      85.419     439.875
  O      255.484      85.879     441.162
  C      255.432      83.957     439.791
  O      255.380      83.474     438.465
  C      256.820      84.018     440.404
  O      257.795      84.441     439.439
  C      256.641      85.087     441.506
  N      256.500      84.488     442.832
  C      257.671      84.017     443.420
  O      258.777      84.095     442.890
  N      257.517      83.394     444.633
  C      256.324      83.076     445.220
  O      256.222      82.307     446.165
  C      255.131      83.650     444.581
  C      255.268      84.309     443.431
  O      251.738      87.372     441.915
  O      251.639      88.971     439.922
  H      251.166      89.484     440.606
  H      258.645      84.476     439.920
  H      258.356      83.010     445.045
  H      254.169      83.485     445.060
  H      254.396      84.715     442.924
  H      257.501      85.770     441.519
  H      257.134      83.046     440.787
  H      254.786      83.349     440.438
  H      255.518      86.012     439.096
  H      253.161      85.235     438.798
  H      252.975      85.141     440.572
  P      255.506      81.906     438.163
  C      254.145      82.212     436.005
  O      255.331      81.678     436.589
  O      254.657      81.024     439.024
  O      257.057      81.591     438.393
  H      257.139      80.818     438.986
  H      254.137      82.000     434.956
  H      254.119      83.271     436.155
  H      253.288      81.766     436.465

 6  7  8  9  10  11  12  13  14  15  16  27  31  32  33  34  35 0
 6-311+G(2d,p)
 ****
 36  37 0
 6-311+G(2d,p)
 ****
 1  2  3  4  5  17  18  19  20  21  22  23  24  25 0
 3-21G
 ****
 26  28  29  30  38  39  40  41  42  43  44  45 0
 3-21G
 ****


