%nproc=1
%NoSave
%Mem=1900MB
#P OB98/GEN NMR

erre ene a

0 1
  C      232.749    -478.224    -518.240
  O      232.678    -476.806    -518.213
  P      234.067    -475.995    -518.196
  C      233.480    -474.563    -520.279
  O      233.787    -474.578    -518.896
  C      234.231    -473.436    -520.995
  O      233.615    -472.164    -520.639
  C      235.726    -473.336    -520.641
  O      236.402    -472.904    -521.820
  C      235.727    -472.254    -519.575
  O      237.004    -471.682    -519.336
  C      234.673    -471.311    -520.149
  N      235.377    -466.736    -517.960
  C      236.025    -467.362    -518.971
  N      235.779    -468.577    -519.504
  C      234.728    -469.152    -518.894
  C      233.984    -468.652    -517.842
  C      234.342    -467.378    -517.367
  N      233.687    -466.747    -516.329
  N      233.000    -469.543    -517.462
  C      233.154    -470.574    -518.272
  N      234.166    -470.379    -519.167
  O      234.954    -476.772    -519.278
  O      234.743    -475.927    -516.862
  H      237.572    -472.320    -518.861
  H      235.884    -476.834    -518.991
  H      236.860    -466.815    -519.408
  H      232.564    -471.482    -518.241
  H      235.058    -470.730    -520.995
  H      235.392    -472.680    -518.628
  H      236.153    -474.288    -520.307
  H      234.103    -473.567    -522.078
  H      232.408    -474.393    -520.412
  H      234.139    -465.939    -515.936
  H      233.059    -467.314    -515.771
  H      233.726    -475.536    -520.722
  P      237.831    -473.549    -522.177
  C      237.226    -473.786    -524.669
  O      238.068    -473.150    -523.719
  O      237.445    -475.102    -522.308
  O      238.934    -473.260    -521.219
  H      236.678    -475.237    -522.893
  H      237.425    -473.344    -525.653
  H      236.174    -473.621    -524.413
  H      237.446    -474.854    -524.704
  H      231.759    -478.631    -518.249
  H      233.270    -478.572    -517.372
  H      233.272    -478.538    -519.119

 3  4  5  6  7  8  9  10  11  12  22  25  29  30  31  32 0
 6-311+G(2d,p)
 ****
 33  36  37 0
 6-311+G(2d,p)
 ****
 1  2  13  14  15  16  17  18  19  20  21  23  24  26 0
 3-21G
 ****
 27  28  34  35  38  39  40  41  42  43  44  45  46  47  48 0
 3-21G
 ****


