%nproc=1
%NoSave
%Mem=1900MB
#P OB98/GEN NMR

erre ene a

0 1
  C     -700.361    -150.709      31.054
  O     -698.995    -150.358      31.143
  H     -700.745    -150.874      32.066
  H     -700.479    -151.632      30.477
  H     -700.926    -149.899      30.586
  P     -698.227    -150.110      29.755
  C     -695.938    -151.134      30.345
  O     -696.684    -149.939      30.177
  C     -694.758    -150.902      31.288
  O     -693.980    -149.784      30.796
  C     -695.182    -150.571      32.724
  O     -694.277    -151.189      33.638
  C     -695.027    -149.062      32.805
  O     -694.811    -148.604      34.133
  C     -693.852    -148.821      31.851
  N     -692.878    -143.928      32.934
  C     -692.642    -145.070      33.614
  N     -692.922    -146.332      33.248
  C     -693.462    -146.365      32.008
  C     -693.765    -145.288      31.196
  C     -693.455    -144.019      31.712
  N     -693.720    -142.848      31.035
  N     -694.353    -145.720      30.026
  C     -694.392    -147.036      30.123
  N     -693.876    -147.470      31.312
  O     -698.780    -149.023      28.894
  O     -698.243    -151.571      29.105
  H     -694.741    -147.626      34.114
  H     -698.024    -152.257      29.764
  H     -692.174    -144.944      34.594
  H     -694.786    -147.712      29.371
  H     -692.884    -148.961      32.344
  H     -695.938    -148.581      32.422
  H     -696.201    -150.890      32.940
  H     -694.107    -151.786      31.266
  H     -695.564    -151.486      29.374
  H     -693.454    -141.977      31.465
  H     -694.136    -142.891      30.106
  H     -696.606    -151.900      30.757
  P     -694.806    -152.421      34.507
  C     -693.441    -151.866      36.643
  O     -693.679    -152.809      35.595
  O     -695.380    -153.572      33.755
  O     -695.931    -151.734      35.440
  H     -696.667    -152.363      35.553
  H     -692.677    -152.240      37.292
  H     -694.342    -151.718      37.201
  H     -693.126    -150.935      36.220

 6  7  8  9  10  11  12  13  14  15  25  28  32  33  34  35 0
 6-311+G(2d,p)
 ****
 36  39  40 0
 6-311+G(2d,p)
 ****
 1  2  3  4  5  16  17  18  19  20  21  22  23  24 0
 3-21G
 ****
 26  27  29  30  31  37  38  41  42  43  44  45  46  47 0
 3-21G
 ****
 48 0
 3-21G
 ****


