%nproc=1
%NoSave
%Mem=1900MB
#P OB98/GEN NMR

erre ene a

0 1
  C     -312.244    -143.484    -158.201
  O     -312.123    -144.625    -157.371
  P     -310.826    -145.547    -157.555
  C     -311.552    -147.990    -157.005
  O     -310.971    -146.779    -156.542
  C     -311.473    -149.053    -155.909
  O     -310.100    -149.431    -155.671
  C     -312.006    -148.582    -154.561
  O     -313.423    -148.612    -154.525
  C     -311.351    -149.572    -153.608
  O     -312.103    -150.793    -153.540
  C     -309.984    -149.808    -154.283
  N     -308.900    -149.097    -153.616
  C     -308.287    -149.773    -152.564
  O     -308.640    -150.892    -152.191
  N     -307.278    -149.101    -151.929
  C     -306.868    -147.828    -152.198
  O     -305.994    -147.258    -151.554
  C     -307.572    -147.152    -153.300
  C     -308.544    -147.804    -153.942
  O     -309.641    -144.674    -156.927
  O     -310.538    -145.938    -158.965
  H     -311.738    -151.304    -152.790
  H     -308.818    -144.819    -157.431
  H     -306.803    -149.583    -151.182
  H     -307.273    -146.139    -153.540
  H     -309.083    -147.319    -154.748
  H     -309.745    -150.879    -154.281
  H     -311.285    -149.179    -152.589
  H     -311.630    -147.573    -154.343
  H     -312.018    -149.944    -156.247
  H     -311.014    -148.334    -157.891
  H     -312.594    -147.803    -157.284
  P     -314.179    -147.196    -154.484
  C     -314.934    -147.668    -152.027
  O     -315.303    -147.358    -153.354
  O     -314.974    -147.241    -155.875
  O     -313.249    -146.039    -154.336
  H     -315.237    -148.146    -156.116
  H     -313.990    -147.190    -151.753
  H     -314.838    -148.751    -151.923
  H     -315.717    -147.314    -151.353
  H     -313.152    -142.968    -157.968
  H     -312.260    -143.789    -159.226
  H     -311.411    -142.833    -158.036

 3  4  5  6  7  8  9  10  11  12  13  23  28  29  30  31  32 0
 6-311+G(2d,p)
 ****
 33  34 0
 6-311+G(2d,p)
 ****
 1  2  14  15  16  17  18  19  20  21  22  24  25  26 0
 3-21G
 ****
 27  35  36  37  38  39  40  41  42  43  44  45 0
 3-21G
 ****


