%nproc=1
%NoSave
%Mem=1900MB
#P OB98/GEN NMR

erre ene a

0 1
  C      488.901     370.415    -810.861
  O      488.711     370.263    -809.456
  P      487.209     370.083    -808.922
  C      486.095     368.761    -806.985
  O      487.307     369.192    -807.601
  C      486.393     368.052    -805.659
  O      487.315     366.953    -805.870
  C      487.073     368.941    -804.610
  O      486.128     369.745    -803.904
  C      487.651     367.889    -803.683
  O      486.637     367.360    -802.821
  C      488.109     366.809    -804.683
  N      492.874     367.155    -802.821
  C      491.666     367.138    -802.202
  N      490.442     367.071    -802.769
  C      490.531     367.030    -804.119
  C      491.704     367.070    -804.872
  C      492.917     367.128    -804.170
  N      494.140     367.105    -804.798
  N      491.409     367.011    -806.227
  C      490.085     366.923    -806.280
  N      489.514     366.917    -805.026
  O      486.549     369.088    -809.999
  O      486.431     371.358    -808.799
  H      486.498     368.015    -802.096
  H      485.593     369.191    -810.000
  H      491.690     367.212    -801.118
  H      489.496     366.854    -807.186
  H      487.952     365.788    -804.288
  H      488.444     368.286    -803.031
  H      487.873     369.531    -805.051
  H      485.451     367.653    -805.273
  H      485.582     368.065    -807.651
  H      494.958     366.965    -804.221
  H      494.179     366.883    -805.774
  H      485.457     369.629    -806.818
  P      486.715     370.774    -802.837
  C      485.797     372.945    -801.732
  O      485.637     371.948    -802.730
  O      487.948     371.453    -803.608
  O      487.139     370.130    -801.535
  H      488.618     371.780    -802.969
  H      485.185     373.809    -801.995
  H      486.850     373.280    -801.679
  H      485.487     372.559    -800.753
  H      489.945     370.524    -811.070
  H      488.376     371.284    -811.200
  H      488.525     369.551    -811.367

 3  4  5  6  7  8  9  10  11  12  22  25  29  30  31  32 0
 6-311+G(2d,p)
 ****
 33  36  37 0
 6-311+G(2d,p)
 ****
 1  2  13  14  15  16  17  18  19  20  21  23  24  26 0
 3-21G
 ****
 27  28  34  35  38  39  40  41  42  43  44  45  46  47  48 0
 3-21G
 ****


