%nproc=1
%NoSave
%Mem=1900MB
#P OB98/GEN NMR

erre ene a

0 1
  C     -514.331    -426.620    -127.972
  O     -515.670    -426.346    -127.594
  P     -515.928    -425.198    -126.504
  C     -516.161    -423.320    -128.286
  O     -515.471    -423.795    -127.138
  C     -517.169    -422.231    -127.897
  O     -516.578    -421.356    -126.899
  C     -517.603    -421.346    -129.076
  O     -518.968    -420.947    -128.893
  C     -516.744    -420.111    -128.928
  O     -517.335    -418.980    -129.561
  C     -516.656    -420.003    -127.405
  N     -514.419    -415.473    -127.620
  C     -515.707    -415.830    -127.964
  N     -516.470    -414.868    -128.520
  N     -516.197    -417.026    -127.774
  C     -515.320    -417.888    -127.211
  C     -514.023    -417.651    -126.815
  C     -513.478    -416.335    -127.040
  O     -512.338    -415.950    -126.784
  N     -513.454    -418.763    -126.260
  C     -514.385    -419.695    -126.346
  N     -515.520    -419.226    -126.955
  O     -514.800    -425.495    -125.394
  O     -517.290    -425.211    -125.895
  H     -516.711    -418.231    -129.444
  H     -515.210    -425.904    -124.606
  H     -514.077    -414.545    -127.797
  H     -514.284    -420.720    -126.021
  H     -517.568    -419.556    -126.979
  H     -515.754    -420.281    -129.372
  H     -516.129    -413.947    -128.754
  H     -517.484    -421.819    -130.061
  H     -517.404    -415.112    -128.822
  H     -518.035    -422.706    -127.429
  H     -516.702    -424.153    -128.744
  H     -515.445    -422.929    -129.020
  P     -519.773    -420.577    -130.230
  C     -521.360    -422.635    -130.388
  O     -520.217    -421.966    -130.885
  O     -518.628    -420.038    -131.211
  O     -520.863    -419.576    -130.027
  H     -519.005    -419.423    -131.873
  H     -522.108    -422.685    -131.176
  H     -521.787    -422.125    -129.516
  H     -521.074    -423.651    -130.092
  H     -514.319    -427.403    -128.701
  H     -513.773    -426.925    -127.112
  H     -513.891    -425.738    -128.389

 3  4  5  6  7  8  9  10  11  12  23  26  30  31 0
 6-311+G(2d,p)
 ****
 33  35  36  37  38 0
 6-311+G(2d,p)
 ****
 1  2  13  14  15  16  17  18  19  20  21  22  24  25 0
 3-21G
 ****
 27  28  29  32  34  39  40  41  42  43  44  45  46  47  48  49 0
 3-21G
 ****


