%nproc=1
%NoSave
%Mem=1900MB
#P OB98/GEN NMR

erre ene a

0 1
  C     -248.295     432.213     601.753
  O     -248.486     433.233     602.729
  P     -248.597     432.845     604.275
  C     -249.404     433.957     606.463
  O     -249.081     434.156     605.092
  C     -248.937     435.148     607.293
  O     -247.495     435.213     607.368
  C     -249.361     436.511     606.707
  O     -250.751     436.746     606.888
  C     -248.436     437.456     607.494
  O     -248.956     437.732     608.793
  C     -247.162     436.614     607.594
  N     -246.124     437.055     606.641
  C     -245.604     438.336     606.860
  O     -246.056     439.053     607.763
  N     -244.579     438.759     606.049
  C     -244.202     438.050     605.039
  N     -243.124     438.487     604.306
  C     -244.844     436.748     604.687
  C     -245.766     436.315     605.516
  O     -247.386     432.160     604.855
  O     -249.882     431.897     604.371
  H     -249.650     431.082     604.849
  H     -249.821     438.189     608.650
  H     -244.525     436.228     603.772
  H     -246.282     435.376     605.360
  H     -246.744     436.662     608.594
  H     -248.314     438.429     606.966
  H     -249.111     436.549     605.644
  H     -249.333     435.032     608.326
  H     -242.689     439.360     604.591
  H     -248.881     433.054     606.806
  H     -242.578     437.853     603.716
  H     -250.469     433.807     606.555
  P     -251.348     438.039     606.138
  C     -253.511     438.589     604.785
  O     -252.769     437.630     605.520
  O     -250.414     438.191     604.824
  O     -251.367     439.288     606.928
  H     -250.270     439.130     604.633
  H     -254.238     438.085     604.169
  H     -252.865     439.192     604.147
  H     -254.024     439.268     605.481
  H     -248.244     432.655     600.780
  H     -249.114     431.526     601.790
  H     -247.383     431.692     601.956

 3  4  5  6  7  8  9  10  11  12  13  24  27  28  29  30  32 0
 6-311+G(2d,p)
 ****
 34  35 0
 6-311+G(2d,p)
 ****
 1  2  14  15  16  17  18  19  20  21  22  23  25  26 0
 3-21G
 ****
 31  33  36  37  38  39  40  41  42  43  44  45  46 0
 3-21G
 ****


