%nproc=1
%NoSave
%Mem=1900MB
#P OB98/GEN NMR

erre ene a

0 1
  C      371.411    -894.570    -426.870
  O      372.073    -895.810    -426.747
  P      372.681    -896.540    -428.045
  C      374.645    -894.870    -428.314
  O      374.255    -896.220    -428.012
  C      376.134    -894.680    -428.088
  O      376.455    -894.700    -426.694
  C      377.002    -895.750    -428.732
  O      377.110    -895.550    -430.130
  C      378.311    -895.580    -427.958
  O      379.092    -894.520    -428.515
  C      377.799    -895.200    -426.543
  N      377.864    -896.330    -425.628
  C      379.129    -896.890    -425.418
  O      380.104    -896.440    -426.034
  N      379.265    -897.960    -424.580
  C      378.203    -898.460    -423.992
  N      378.388    -899.520    -423.174
  C      376.836    -897.930    -424.202
  C      376.745    -896.880    -425.027
  O      371.982    -896.240    -429.316
  O      372.638    -898.100    -427.630
  H      378.491    -893.750    -428.598
  H      371.696    -898.450    -427.668
  H      375.992    -898.380    -423.719
  H      375.787    -896.420    -425.244
  H      378.400    -894.370    -426.140
  H      378.919    -896.480    -427.982
  H      376.573    -896.740    -428.515
  H      376.410    -893.690    -428.491
  H      379.335    -899.870    -423.076
  H      374.092    -894.210    -427.643
  H      377.626    -900.000    -422.700
  H      374.351    -894.630    -429.342
  P      376.862    -896.770    -431.137
  C      374.296    -896.860    -431.326
  O      375.494    -896.450    -431.947
  O      376.956    -898.130    -430.537
  O      377.989    -896.560    -432.250
  H      378.403    -897.440    -432.458
  H      373.471    -896.310    -431.790
  H      374.330    -896.630    -430.254
  H      374.142    -897.920    -431.475
  H      371.079    -894.246    -425.906
  H      370.568    -894.679    -427.519
  H      372.084    -893.845    -427.278

 3  4  5  6  7  8  9  10  11  12  13  23  27  28  29  30  32 0
 6-311+G(2d,p)
 ****
 34  35 0
 6-311+G(2d,p)
 ****
 1  2  14  15  16  17  18  19  20  21  22  24  25  26 0
 3-21G
 ****
 31  33  36  37  38  39  40  41  42  43  44  45  46 0
 3-21G
 ****


