%nproc=1
%NoSave
%Mem=1900MB
#P OB98/GEN NMR

erre ene a

0 1
  C     -362.843     536.892     405.580
  O     -361.776     537.749     405.944
  H     -362.748     535.955     406.141
  H     -362.798     536.666     404.511
  H     -363.806     537.353     405.827
  P     -361.730     539.233     405.336
  C     -359.582     539.014     403.936
  O     -360.185     539.588     405.091
  C     -358.090     538.776     404.167
  O     -357.925     537.665     405.083
  C     -357.309     538.456     402.885
  O     -356.030     539.083     402.964
  C     -357.151     536.949     402.943
  O     -356.002     536.498     402.221
  C     -357.064     536.703     404.453
  N     -358.497     533.696     408.260
  C     -358.244     535.054     408.248
  N     -358.350     535.715     409.420
  N     -357.890     535.715     407.169
  C     -357.828     534.934     406.061
  C     -358.058     533.587     405.946
  C     -358.430     532.866     407.148
  O     -358.659     531.659     407.230
  N     -357.871     533.147     404.655
  C     -357.518     534.242     403.990
  N     -357.470     535.348     404.799
  O     -362.487     540.262     406.112
  O     -362.309     539.066     403.854
  H     -355.233     537.012     402.559
  H     -363.246     539.340     403.818
  H     -358.754     533.235     409.118
  H     -357.284     534.282     402.938
  H     -356.044     536.840     404.838
  H     -358.044     536.466     402.517
  H     -358.629     535.274     410.284
  H     -357.832     538.783     401.976
  H     -358.186     536.711     409.427
  H     -357.668     539.667     404.663
  H     -359.725     539.700     403.093
  H     -360.077     538.063     403.702
  P     -355.754     540.389     402.078
  C     -353.775     539.456     400.703
  O     -354.196     540.404     401.677
  O     -356.278     541.666     402.627
  O     -356.457     540.026     400.678
  H     -356.767     540.850     400.255
  H     -352.726     539.568     400.526
  H     -354.310     539.620     399.791
  H     -353.973     538.467     401.059

 6  7  8  9  10  11  12  13  14  15  26  29  33  34 0
 6-311+G(2d,p)
 ****
 36  38  39  40  41 0
 6-311+G(2d,p)
 ****
 1  2  3  4  5  16  17  18  19  20  21  22  23  24  25 0
 3-21G
 ****
 27  28  30  31  32  35  37  42  43  44  45  46  47 0
 3-21G
 ****
 48  49 0
 3-21G
 ****


