%nproc=1
%NoSave
%Mem=1900MB
#P OB98/GEN NMR

erre ene a

0 1
  C      -61.172    -188.413     131.232
  O      -61.290    -187.573     130.099
  H      -61.212    -189.454     130.899
  H      -61.999    -188.231     131.925
  H      -60.215    -188.239     131.729
  P      -61.287    -185.991     130.375
  C      -63.640    -185.898     129.290
  O      -62.844    -185.597     130.429
  C      -64.987    -186.473     129.716
  O      -64.794    -187.620     130.567
  C      -65.870    -185.503     130.494
  O      -66.577    -184.654     129.609
  C      -66.806    -186.471     131.210
  O      -67.852    -186.882     130.308
  C      -65.885    -187.664     131.526
  N      -66.808    -188.649     136.479
  C      -67.633    -188.555     135.415
  N      -67.329    -188.238     134.141
  C      -66.010    -188.005     134.004
  C      -65.045    -188.058     135.005
  C      -65.490    -188.403     136.292
  N      -64.640    -188.492     137.377
  N      -63.796    -187.755     134.498
  C      -63.999    -187.584     133.210
  N      -65.326    -187.692     132.865
  O      -60.430    -185.176     129.461
  O      -60.867    -185.953     131.920
  H      -68.408    -186.096     130.141
  H      -61.313    -186.662     132.413
  H      -68.680    -188.763     135.618
  H      -63.223    -187.405     132.474
  H      -66.407    -188.621     131.385
  H      -67.288    -186.021     132.076
  H      -65.291    -184.941     131.243
  H      -65.507    -186.824     128.810
  H      -63.116    -186.615     128.642
  H      -65.070    -188.552     138.289
  H      -63.687    -188.180     137.260
  H      -63.784    -184.967     128.725
  P      -66.327    -183.071     129.602
  C      -68.827    -182.905     130.197
  O      -67.511    -182.459     130.506
  O      -66.171    -182.470     128.247
  O      -65.035    -182.870     130.521
  H      -64.649    -181.982     130.370
  H      -69.527    -182.436     130.857
  H      -68.881    -183.967     130.317
  H      -69.063    -182.648     129.186

 6  7  8  9  10  11  12  13  14  15  25  28  32  33  34  35 0
 6-311+G(2d,p)
 ****
 36  39  40 0
 6-311+G(2d,p)
 ****
 1  2  3  4  5  16  17  18  19  20  21  22  23  24 0
 3-21G
 ****
 26  27  29  30  31  37  38  41  42  43  44  45  46  47 0
 3-21G
 ****
 48 0
 3-21G
 ****


