%nproc=1
%NoSave
%Mem=1900MB
#P OB98/GEN NMR

erre ene a

0 1
  C      377.305     224.510     -10.836
  O      377.631     223.387     -11.629
  H      377.610     224.309      -9.806
  H      376.227     224.687     -10.850
  H      377.834     225.399     -11.190
  P      377.281     223.428     -13.194
  C      379.164     221.733     -13.735
  O      377.771     221.997     -13.743
  C      379.564     220.963     -14.989
  O      379.051     221.597     -16.181
  C      381.065     220.858     -15.229
  O      381.724     219.956     -14.357
  C      381.069     220.378     -16.667
  O      380.723     218.983     -16.712
  C      379.951     221.257     -17.274
  N      380.468     222.469     -17.909
  C      380.781     222.377     -19.269
  O      380.630     221.319     -19.881
  N      381.290     223.484     -19.907
  C      381.495     224.578     -19.238
  N      382.011     225.639     -19.917
  C      381.199     224.711     -17.799
  C      380.691     223.632     -17.206
  O      377.788     224.614     -13.949
  O      375.690     223.265     -13.252
  H      379.891     218.883     -16.212
  H      375.418     223.295     -14.202
  H      381.414     225.631     -17.280
  H      380.455     223.650     -16.148
  H      379.367     220.691     -18.012
  H      382.041     220.486     -17.156
  H      381.537     221.850     -15.192
  H      379.097     219.970     -14.925
  H      382.203     225.516     -20.903
  H      379.399     221.163     -12.831
  H      382.270     226.502     -19.461
  H      379.724     222.675     -13.717
  P      383.332     219.934     -14.407
  C      383.380     219.869     -11.796
  O      383.815     219.295     -13.021
  O      383.717     221.481     -14.281
  O      383.920     219.290     -15.621
  H      383.913     221.859     -15.162
  H      383.795     219.320     -10.977
  H      382.312     219.833     -11.744
  H      383.705     220.887     -11.744

 6  7  8  9  10  11  12  13  14  15  16  26  30  31  32  33  35 0
 6-311+G(2d,p)
 ****
 37  38 0
 6-311+G(2d,p)
 ****
 1  2  3  4  5  17  18  19  20  21  22  23  24  25 0
 3-21G
 ****
 27  28  29  34  36  39  40  41  42  43  44  45  46 0
 3-21G
 ****


