%nproc=1
%NoSave
%Mem=1900MB
#P OB98/GEN NMR

erre ene a

0 1
  C      175.923    -380.341      22.254
  O      175.447    -380.907      23.465
  P      175.902    -382.406      23.815
  C      178.171    -383.572      24.253
  O      177.506    -382.435      23.714
  C      179.326    -384.003      23.357
  O      178.779    -384.607      22.150
  C      180.248    -382.854      22.915
  O      181.614    -383.285      23.008
  C      179.923    -382.678      21.445
  O      181.011    -382.111      20.721
  C      179.587    -384.119      21.061
  N      179.809    -386.232      16.480
  C      180.559    -386.489      17.604
  N      181.543    -387.408      17.474
  N      180.363    -385.907      18.758
  C      179.325    -385.039      18.752
  C      178.503    -384.704      17.703
  C      178.767    -385.314      16.416
  O      178.193    -385.056      15.358
  N      177.545    -383.796      18.088
  C      177.789    -383.581      19.365
  N      178.888    -384.273      19.803
  O      175.422    -383.231      22.527
  O      175.319    -382.975      25.066
  H      181.793    -382.675      20.884
  H      174.833    -383.959      22.805
  H      180.010    -386.698      15.611
  H      177.226    -382.908      20.000
  H      180.499    -384.727      21.012
  H      179.052    -382.021      21.343
  H      181.726    -387.921      16.630
  H      180.114    -381.928      23.482
  H      182.092    -387.631      18.298
  H      179.896    -384.783      23.873
  H      177.457    -384.395      24.347
  H      178.547    -383.319      25.252
  P      182.705    -382.130      23.248
  C      183.090    -380.404      25.167
  O      182.212    -381.330      24.550
  O      182.427    -381.107      22.051
  O      184.115    -382.618      23.272
  H      183.235    -380.587      21.852
  H      183.980    -380.216      24.560
  H      183.394    -380.795      26.136
  H      182.549    -379.459      25.313
  H      175.543    -379.346      22.152
  H      175.592    -380.936      21.428
  H      176.993    -380.314      22.269

 3  4  5  6  7  8  9  10  11  12  23  26  30  31  33  0
 6-311+G(2d,p)
 ****
 35  36  37  38 0
 6-311+G(2d,p)
 ****
 1  2  13  14  15  16  17  18  19  20  21  22  24  25  27  28  29 0
 3-21G
 ****
 32  34  39  40  41  42  43  44  45  46  47  48  49 0
 3-21G
 ****


