%nproc=1
%NoSave
%Mem=1900MB
#P OB98/GEN NMR

erre ene a

0 1
  C       27.128      76.134     -67.270
  O       26.159      76.891     -67.980
  P       26.626      77.617     -69.335
  C       27.988      79.766     -69.899
  O       27.457      78.916     -68.889
  C       28.408      81.101     -69.299
  O       27.254      81.867     -68.889
  C       29.270      80.980     -68.048
  O       30.634      80.729     -68.356
  C       29.109      82.369     -67.447
  O       29.978      83.300     -68.121
  C       27.641      82.685     -67.759
  N       26.589      83.861     -62.946
  C       27.440      84.478     -63.844
  N       28.159      85.521     -63.369
  N       27.574      84.110     -65.091
  C       26.801      83.047     -65.421
  C       25.919      82.352     -64.626
  C       25.788      82.763     -63.243
  O       25.090      82.224     -62.389
  N       25.310      81.342     -65.319
  C       25.818      81.421     -66.531
  N       26.760      82.411     -66.635
  O       25.265      78.233     -69.909
  O       27.297      76.726     -70.322
  H       30.895      82.999     -67.954
  H       25.373      78.462     -70.855
  H       26.525      84.177     -61.994
  H       25.548      80.774     -67.362
  H       27.502      83.732     -68.051
  H       29.367      82.403     -66.384
  H       28.145      85.812     -62.400
  H       28.863      80.232     -67.354
  H       28.838      85.951     -63.981
  H       28.933      81.672     -70.077
  H       27.225      79.930     -70.666
  H       28.845      79.272     -70.371
  P       31.416      79.713     -67.387
  C       31.763      79.749     -64.811
  O       31.587      80.498     -66.000
  O       32.892      79.693     -68.007
  O       30.817      78.349     -67.304
  H       33.338      78.850     -67.793
  H       32.125      80.420     -64.025
  H       32.494      78.950     -64.950
  H       30.807      79.325     -64.496
  H       26.679      75.711     -66.395
  H       27.938      76.771     -66.983
  H       27.497      75.349     -67.897

 3  4  5  6  7  8  9  10  11  12  23  26  30  31 0
 6-311+G(2d,p)
 ****
 33  35  36  37  38 0
 6-311+G(2d,p)
 ****
 1  2  13  14  15  16  17  18  19  20  21  22  24  25 0
 3-21G
 ****
 27  28  29  32  34  39  40  41  42  43  44  45  46  47  48  49 0
 3-21G
 ****


