%nproc=1
%NoSave
%Mem=1900MB
#P OB98/GEN NMR

erre ene a

0 1
  C      288.810     360.743     160.896
  O      287.721     361.647     160.685
  P      286.870     362.089     161.975
  C      288.367     364.123     162.677
  O      287.919     362.805     162.956
  C      288.155     365.018     163.899
  O      286.758     365.383     164.025
  C      288.522     364.362     165.218
  O      289.930     364.293     165.389
  C      287.803     365.275     166.206
  O      288.574     366.466     166.434
  C      286.514     365.629     165.432
  N      285.348     364.892     165.907
  C      284.322     365.666     166.449
  O      284.388     366.890     166.554
  N      283.224     364.975     166.885
  C      283.066     363.621     166.861
  O      282.051     363.060     167.256
  C      284.200     362.857     166.321
  C      285.272     363.513     165.874
  O      286.587     360.673     162.660
  O      285.655     362.883     161.629
  H      287.323     360.045     162.555
  H      288.140     366.937     167.175
  H      282.466     365.520     167.270
  H      284.117     361.774     166.314
  H      286.121     362.967     165.476
  H      286.299     366.698     165.521
  H      287.637     364.799     167.175
  H      288.093     363.356     165.268
  H      288.737     365.932     163.756
  H      287.807     364.533     161.829
  H      289.423     364.085     162.390
  P      290.480     363.217     166.450
  C      291.754     361.810     164.656
  O      290.742     361.869     165.634
  O      289.153     362.909     167.290
  O      291.625     363.713     167.266
  H      288.368     362.790     166.735
  H      292.010     360.765     164.470
  H      292.657     362.338     164.982
  H      291.386     362.252     163.721
  H      289.286     360.534     159.961
  H      288.441     359.832     161.319
  H      289.517     361.187     161.565

 3  4  5  6  7  8  9  10  11  12  13  24  28  29  30  31  32 0
 6-311+G(2d,p)
 ****
 33  34 0
 6-311+G(2d,p)
 ****
 1  2  14  15  16  17  18  19  20  21  22  23  25  26  27 0
 3-21G
 ****
 35  36  37  38  39  40  41  42  43  44  45 0
 3-21G
 ****


