%nproc=1
%NoSave
%Mem=1900MB
#P OB98/GEN NMR

erre ene a

0 1
  C     -307.714     200.317     -66.798
  O     -306.598     199.445     -66.840
  H     -308.599     199.742     -66.518
  H     -307.878     200.767     -67.781
  H     -307.549     201.099     -66.046
  P     -305.186     200.106     -67.207
  C     -304.773     198.867     -69.441
  O     -304.434     198.979     -68.067
  C     -304.209     197.574     -70.028
  O     -302.775     197.649     -70.118
  C     -304.511     196.324     -69.208
  O     -305.822     195.850     -69.468
  C     -303.450     195.373     -69.738
  O     -303.874     194.825     -71.002
  C     -302.240     196.308     -69.952
  N     -297.244     196.513     -68.780
  C     -297.882     196.358     -69.960
  N     -299.212     196.267     -70.194
  C     -299.904     196.362     -69.044
  C     -299.386     196.523     -67.765
  C     -297.989     196.615     -67.654
  N     -297.335     196.786     -66.449
  N     -300.400     196.572     -66.831
  C     -301.507     196.496     -67.538
  N     -301.262     196.326     -68.879
  O     -304.424     200.688     -66.063
  O     -305.624     201.159     -68.332
  H     -303.145     194.275     -71.344
  H     -306.318     200.780     -68.901
  H     -297.239     196.297     -70.837
  H     -302.515     196.570     -67.134
  H     -301.691     196.055     -70.867
  H     -303.273     194.530     -69.068
  H     -304.336     196.498     -68.139
  H     -304.593     197.469     -71.051
  H     -304.401     199.724     -70.006
  H     -296.333     196.668     -66.441
  H     -297.888     196.732     -65.601
  H     -305.870     198.862     -69.507
  P     -306.846     195.583     -68.270
  C     -306.227     193.088     -68.436
  O     -307.280     194.035     -68.378
  O     -307.981     196.540     -68.176
  O     -305.939     195.607     -66.947
  H     -306.415     196.032     -66.213
  H     -306.637     192.102     -68.506
  H     -305.630     193.164     -67.551
  H     -305.619     193.283     -69.295

 6  7  8  9  10  11  12  13  14  15  25  28  32  33  34  35 0
 6-311+G(2d,p)
 ****
 36  39  40 0
 6-311+G(2d,p)
 ****
 1  2  3  4  5  16  17  18  19  20  21  22  23  24 0
 3-21G
 ****
 26  27  29  30  31  37  38  41  42  43  44  45  46  47 0
 3-21G
 ****
 48 0
 3-21G
 ****


