%nproc=1
%NoSave
%Mem=1900MB
#P OB98/GEN NMR

erre ene a

0 1
  C       -8.798      19.400     -81.138
  O       -8.182      18.211     -80.689
  H       -9.519      19.178     -81.930
  H       -9.329      19.862     -80.300
  H       -8.043      20.101     -81.509
  P       -7.376      17.356     -81.783
  C       -9.266      15.567     -81.756
  O       -8.490      16.472     -82.530
  C       -9.407      14.251     -82.513
  O      -10.052      14.478     -83.788
  C       -8.076      13.580     -82.834
  O       -7.565      12.834     -81.743
  C       -8.487      12.671     -83.979
  O       -9.181      11.522     -83.463
  C       -9.456      13.574     -84.759
  N       -6.898      13.361     -89.189
  C       -7.465      12.400     -88.428
  N       -8.145      12.541     -87.272
  C       -8.228      13.833     -86.923
  C       -7.708      14.925     -87.602
  C       -7.008      14.650     -88.790
  N       -6.403      15.624     -89.553
  N       -7.977      16.095     -86.920
  C       -8.662      15.717     -85.860
  N       -8.810      14.357     -85.800
  O       -6.582      16.273     -80.913
  O       -6.491      18.136     -82.698
  H       -9.641      11.104     -84.215
  H       -5.889      15.846     -81.451
  H       -7.350      11.383     -88.792
  H       -9.060      16.383     -85.106
  H      -10.269      13.011     -85.232
  H       -7.633      12.301     -84.552
  H       -7.339      14.305     -83.200
  H      -10.054      13.584     -81.927
  H      -10.257      16.002     -81.585
  H       -5.803      15.315     -90.301
  H       -6.352      16.563     -89.188
  H       -8.775      15.398     -80.793
  P       -6.002      12.993     -81.404
  C       -5.374      10.635     -82.297
  O       -5.217      12.042     -82.432
  O       -5.859      12.224     -80.009
  O       -5.522      14.405     -81.326
  H       -5.164      12.632     -79.456
  H       -4.795      10.138     -83.047
  H       -6.406      10.378     -82.415
  H       -5.040      10.330     -81.327

 6  7  8  9  10  11  12  13  14  15  25  28  32  33  34  35 0
 6-311+G(2d,p)
 ****
 36  39  40 0
 6-311+G(2d,p)
 ****
 1  2  3  4  5  16  17  18  19  20  21  22  23  24 0
 3-21G
 ****
 26  27  29  30  31  37  38  41  42  43  44  45  46  47 0
 3-21G
 ****
 48 0
 3-21G
 ****


