%nproc=1
%NoSave
%Mem=1900MB
#P OB98/GEN NMR

erre ene a

0 1
  C      152.259     -72.201     -25.372
  O      152.446     -73.591     -25.541
  H      153.072     -71.813     -24.755
  H      151.310     -71.996     -24.869
  H      152.285     -71.694     -26.340
  P      151.314     -74.423     -26.318
  C      150.228     -75.139     -24.078
  O      150.871     -75.560     -25.270
  C      149.324     -76.249     -23.546
  O      148.649     -75.834     -22.341
  C      148.204     -76.671     -24.492
  O      148.653     -77.451     -25.587
  C      147.332     -77.463     -23.531
  O      147.929     -78.749     -23.289
  C      147.398     -76.575     -22.264
  N      146.267     -75.657     -22.151
  C      145.235     -76.038     -21.283
  O      145.301     -77.096     -20.659
  N      144.132     -75.227     -21.171
  C      144.056     -74.142     -21.876
  N      142.920     -73.398     -21.763
  C      145.125     -73.695     -22.789
  C      146.187     -74.492     -22.882
  O      151.675     -74.915     -27.682
  O      150.035     -73.460     -26.307
  H      147.396     -79.186     -22.601
  H      149.308     -73.926     -26.788
  H      145.008     -72.786     -23.360
  H      147.007     -74.240     -23.544
  H      147.445     -77.192     -21.359
  H      146.322     -77.639     -23.909
  H      147.638     -75.800     -24.840
  H      149.966     -77.098     -23.279
  H      142.191     -73.757     -21.162
  H      149.651     -74.237     -24.301
  H      142.667     -72.712     -22.466
  H      150.972     -74.905     -23.311
  P      148.512     -76.829     -27.061
  C      145.978     -77.291     -27.457
  O      147.318     -77.623     -27.782
  O      149.823     -77.365     -27.800
  O      148.382     -75.340     -27.127
  H      150.547     -76.711     -27.751
  H      145.311     -77.909     -28.021
  H      145.798     -76.263     -27.693
  H      145.814     -77.451     -26.412

 6  7  8  9  10  11  12  13  14  15  16  26  30  31  32  33  35 0
 6-311+G(2d,p)
 ****
 37  38 0
 6-311+G(2d,p)
 ****
 1  2  3  4  5  17  18  19  20  21  22  23  24  25 0
 3-21G
 ****
 27  28  29  34  36  39  40  41  42  43  44  45  46 0
 3-21G
 ****


