%nproc=1
%NoSave
%Mem=1900MB
#P OB98/GEN NMR

erre ene a

0 1
  C      -97.669    -224.100    -524.418
  O      -97.472    -223.806    -525.807
  P      -97.997    -222.368    -526.310
  C      -95.593    -221.441    -526.677
  O      -96.841    -221.284    -526.007
  C      -94.716    -220.189    -526.542
  O      -95.279    -219.123    -527.334
  C      -94.581    -219.661    -525.108
  O      -93.247    -219.166    -524.924
  C      -95.516    -218.465    -525.083
  O      -95.175    -217.532    -524.061
  C      -95.333    -217.948    -526.509
  N      -97.783    -213.607    -525.628
  C      -96.638    -214.106    -525.046
  N      -96.081    -213.353    -524.071
  N      -96.092    -215.242    -525.381
  C      -96.733    -215.867    -526.392
  C      -97.867    -215.475    -527.064
  C      -98.493    -214.238    -526.649
  O      -99.529    -213.765    -527.096
  N      -98.228    -216.387    -528.032
  C      -97.312    -217.336    -527.945
  N      -96.389    -217.074    -526.957
  O      -99.143    -222.008    -525.255
  O      -98.518    -222.370    -527.705
  H      -95.012    -218.043    -523.246
  H      -99.981    -221.840    -525.718
  H      -98.180    -212.737    -525.319
  H      -97.281    -218.228    -528.544
  H      -94.378    -217.411    -526.619
  H      -96.541    -218.807    -524.902
  H      -96.419    -212.444    -523.806
  H      -94.817    -220.390    -524.326
  H      -95.217    -213.687    -523.657
  H      -93.730    -220.422    -526.951
  H      -95.772    -221.632    -527.736
  H      -95.083    -222.312    -526.256
  P      -92.253    -220.079    -524.052
  C      -90.243    -220.055    -525.707
  O      -91.287    -220.801    -525.110
  O      -93.199    -221.263    -523.536
  O      -91.583    -219.361    -522.931
  H      -92.861    -221.630    -522.700
  H      -90.094    -219.086    -525.224
  H      -90.482    -219.883    -526.763
  H      -89.313    -220.630    -525.639
  H      -97.284    -225.075    -524.202
  H      -98.715    -224.072    -524.192
  H      -97.156    -223.373    -523.823

 3  4  5  6  7  8  9  10  11  12  23  26  30  31  33  0
 6-311+G(2d,p)
 ****
 35  36  37  38 0
 6-311+G(2d,p)
 ****
 1  2  13  14  15  16  17  18  19  20  21  22  24  25  27  28  29 0
 3-21G
 ****
 32  34  39  40  41  42  43  44  45  46  47  48  49 0
 3-21G
 ****


