%nproc=1
%NoSave
%Mem=1900MB
#P OB98/GEN NMR

erre ene a

0 1
  C      366.946    -669.550     199.190
  O      366.590    -670.813     199.776
  P      366.853    -672.224     199.054
  C      368.153    -673.487     200.909
  O      366.922    -673.365     200.180
  C      367.905    -674.078     202.290
  O      367.084    -673.191     203.089
  C      367.149    -675.406     202.312
  O      367.946    -676.493     201.869
  C      366.731    -675.492     203.774
  O      367.770    -676.035     204.596
  C      366.505    -674.005     204.136
  N      365.100    -673.671     204.326
  C      364.468    -674.241     205.450
  O      365.074    -675.030     206.166
  N      363.175    -673.903     205.716
  C      362.510    -673.154     204.867
  N      361.228    -672.835     205.184
  C      363.096    -672.658     203.599
  C      364.374    -672.932     203.403
  O      368.020    -672.220     198.122
  O      365.491    -672.546     198.264
  H      365.691    -673.131     197.510
  H      367.781    -676.992     204.436
  H      362.499    -672.063     202.917
  H      364.897    -672.600     202.515
  H      367.060    -673.742     205.049
  H      365.838    -676.122     203.915
  H      366.261    -675.318     201.680
  H      368.871    -674.194     202.795
  H      360.863    -673.186     206.055
  H      368.593    -672.485     201.022
  H      360.643    -672.245     204.610
  H      368.850    -674.095     200.330
  P      367.200    -677.666     201.074
  C      368.841    -677.866     199.062
  O      368.316    -678.461     200.222
  O      366.361    -676.893     199.958
  O      366.320    -678.532     201.922
  H      365.488    -677.319     199.849
  H      369.842    -678.247     198.889
  H      368.875    -676.772     199.147
  H      368.209    -678.136     198.201
  H      366.673    -668.758     199.856
  H      366.428    -669.429     198.261
  H      368.001    -669.522     199.016

 3  4  5  6  7  8  9  10  11  12  13  24  27  28  29  30  32 0
 6-311+G(2d,p)
 ****
 34  35 0
 6-311+G(2d,p)
 ****
 1  2  14  15  16  17  18  19  20  21  22  23  25  26 0
 3-21G
 ****
 31  33  36  37  38  39  40  41  42  43  44  45  46 0
 3-21G
 ****


