%nproc=1
%NoSave
%Mem=1900MB
#P OB98/GEN NMR

erre ene a

0 1
  C      -13.749      33.368       7.262
  O      -12.993      34.487       7.695
  P      -11.408      34.379       7.919
  C      -11.614      32.970      10.059
  O      -11.224      34.220       9.504
  C      -11.140      32.868      11.506
  O       -9.692      32.871      11.513
  C      -11.547      34.019      12.425
  O      -12.844      33.893      12.989
  C      -10.505      33.883      13.527
  O      -10.876      32.817      14.419
  C       -9.249      33.504      12.740
  N       -5.952      36.940      14.609
  C       -6.581      35.887      15.177
  N       -7.460      35.030      14.617
  C       -7.638      35.319      13.318
  C       -7.064      36.354      12.599
  C       -6.181      37.192      13.300
  N       -5.524      38.251      12.711
  N       -7.505      36.341      11.290
  C       -8.318      35.308      11.222
  N       -8.424      34.654      12.418
  O      -10.618      35.466       7.279
  O      -11.030      32.928       7.366
  H      -11.813      32.955      14.653
  H      -10.067      32.870       7.215
  H       -6.351      35.712      16.225
  H       -8.851      35.000      10.335
  H       -8.622      32.779      13.271
  H      -10.408      34.787      14.135
  H      -11.422      34.989      11.929
  H      -11.476      31.907      11.913
  H      -11.146      32.172       9.471
  H       -4.814      38.715      13.255
  H       -5.568      38.338      11.706
  H      -12.698      32.858       9.990
  P      -14.049      34.640      12.230
  C      -13.541      36.872      13.498
  O      -14.470      35.858      13.183
  O      -15.160      33.747      11.801
  O      -13.305      35.365      11.012
  H      -12.699      36.081      11.264
  H      -14.065      37.679      14.017
  H      -13.086      37.279      12.593
  H      -12.764      36.477      14.157
  H      -14.779      33.646       7.174
  H      -13.653      32.575       7.974
  H      -13.386      33.039       6.311

 3  4  5  6  7  8  9  10  11  12  22  25  29  30  31  32 0
 6-311+G(2d,p)
 ****
 33  36  37 0
 6-311+G(2d,p)
 ****
 1  2  13  14  15  16  17  18  19  20  21  23  24  26 0
 3-21G
 ****
 27  28  34  35  38  39  40  41  42  43  44  45  46  47  48 0
 3-21G
 ****


