%nproc=1
%NoSave
%Mem=1900MB
#P OB98/GEN NMR

erre ene a

0 1
  C      948.023     736.461     165.955
  O      947.667     735.924     164.689
  H      949.029     736.120     166.200
  H      947.338     736.094     166.729
  H      948.008     737.544     165.919
  P      946.164     736.206     164.198
  C      946.854     735.004     161.972
  O      945.925     735.094     163.051
  C      946.639     733.711     161.196
  O      947.044     732.573     161.989
  C      945.183     733.438     160.811
  O      944.726     734.208     159.718
  C      945.272     731.949     160.490
  O      945.899     731.786     159.203
  C      946.179     731.456     161.641
  N      945.428     731.008     162.816
  C      944.896     729.710     162.764
  O      945.049     729.008     161.769
  N      944.136     729.261     163.829
  C      943.967     730.033     164.882
  N      943.220     729.523     165.900
  C      944.516     731.399     164.983
  C      945.225     731.811     163.916
  O      946.295     737.559     163.352
  O      945.125     736.231     165.260
  H      946.139     730.835     159.125
  H      945.446     737.747     162.873
  H      944.333     732.009     165.851
  H      945.674     732.811     163.917
  H      946.812     730.624     161.304
  H      944.293     731.466     160.440
  H      944.522     733.573     161.689
  H      947.276     733.748     160.299
  H      942.793     728.607     165.768
  H      947.862     735.029     162.388
  H      942.902     730.091     166.673
  H      946.724     735.860     161.307
  P      943.159     734.167     159.377
  C      943.852     734.761     156.920
  O      943.031     733.967     157.791
  O      942.704     735.705     159.586
  O      942.338     733.222     160.219
  H      941.788     735.761     159.941
  H      943.644     734.505     155.902
  H      944.884     734.572     157.132
  H      943.640     735.798     157.077

 6  7  8  9  10  11  12  13  14  15  16  26  30  31  32  33  35 0
 6-311+G(2d,p)
 ****
 37  38 0
 6-311+G(2d,p)
 ****
 1  2  3  4  5  17  18  19  20  21  22  23  24  25 0
 3-21G
 ****
 27  28  29  34  36  39  40  41  42  43  44  45  46 0
 3-21G
 ****


