%nproc=1
%NoSave
%Mem=1900MB
#P OB98/GEN NMR

erre ene a

0 1
  C     -344.243    -221.475    -165.222
  O     -344.642    -221.770    -166.557
  P     -344.774    -220.538    -167.580
  C     -347.343    -220.405    -167.206
  O     -346.090    -219.737    -167.118
  C     -348.451    -219.546    -166.620
  O     -348.231    -219.359    -165.206
  C     -348.542    -218.144    -167.207
  O     -349.234    -218.133    -168.449
  C     -349.338    -217.425    -166.129
  O     -350.743    -217.693    -166.302
  C     -348.823    -218.086    -164.837
  N     -347.580    -213.463    -163.169
  C     -348.710    -213.893    -163.842
  N     -349.657    -212.960    -164.080
  N     -348.896    -215.122    -164.246
  C     -347.884    -215.952    -163.900
  C     -346.711    -215.655    -163.242
  C     -346.498    -214.275    -162.840
  O     -345.489    -213.830    -162.308
  N     -345.938    -216.768    -163.068
  C     -346.648    -217.748    -163.583
  N     -347.826    -217.297    -164.135
  O     -345.234    -221.249    -168.940
  O     -343.533    -219.733    -167.766
  H     -350.829    -218.609    -166.616
  H     -344.974    -220.700    -169.704
  H     -347.496    -212.510    -162.865
  H     -346.354    -218.786    -163.583
  H     -349.641    -218.307    -164.145
  H     -349.218    -216.335    -166.162
  H     -349.632    -212.029    -163.677
  H     -347.550    -217.689    -167.293
  H     -350.508    -213.260    -164.531
  H     -349.403    -220.080    -166.740
  H     -347.285    -221.344    -166.642
  H     -347.549    -220.640    -168.254
  P     -348.869    -216.941    -169.461
  C     -351.071    -215.649    -168.952
  O     -349.654    -215.657    -168.903
  O     -349.669    -217.335    -170.788
  O     -347.411    -216.763    -169.707
  H     -349.232    -216.949    -171.575
  H     -351.484    -216.647    -168.769
  H     -351.394    -215.299    -169.937
  H     -351.448    -214.964    -168.187
  H     -344.197    -222.381    -164.655
  H     -344.954    -220.811    -164.776
  H     -343.279    -221.011    -165.232

 3  4  5  6  7  8  9  10  11  12  23  26  30  31  33  0
 6-311+G(2d,p)
 ****
 35  36  37  38 0
 6-311+G(2d,p)
 ****
 1  2  13  14  15  16  17  18  19  20  21  22  24  25  27  28  29 0
 3-21G
 ****
 32  34  39  40  41  42  43  44  45  46  47  48  49 0
 3-21G
 ****


