%nproc=1
%NoSave
%Mem=1900MB
#P OB98/GEN NMR

erre ene a

0 1
  C       12.360     101.115     351.817
  O       12.578     101.725     350.564
  P       12.189     100.984     349.199
  C        9.720     101.717     349.258
  O       10.626     100.620     349.300
  C        8.600     101.442     348.247
  O        9.193     101.306     346.919
  C        7.823     100.146     348.554
  O        6.406     100.310     348.622
  C        8.320      99.196     347.476
  O        7.454      98.106     347.228
  C        8.578     100.155     346.310
  N        9.413      99.560     345.270
  C        8.861      98.521     344.529
  O        7.724      98.084     344.685
  N        9.688      97.932     343.614
  C       11.014      98.192     343.450
  O       11.721      97.557     342.680
  C       11.554      99.274     344.290
  C       10.740      99.916     345.130
  O       13.063      99.836     348.823
  O       12.183     102.177     348.129
  H        7.804      97.611     346.464
  H       11.555     102.895     348.321
  H        9.300      97.177     343.071
  H       12.606      99.495     344.189
  H       11.109     100.717     345.762
  H        7.645     100.488     345.854
  H        9.273      98.774     347.818
  H        8.091      99.751     349.540
  H        7.934     102.310     348.244
  H       10.264     102.613     348.953
  H        9.314     101.902     350.259
  P        5.459      99.665     349.740
  C        4.746     101.682     351.217
  O        5.579     100.551     351.067
  O        5.625      98.197     349.944
  O        3.983      99.997     349.215
  H        3.365      99.309     349.522
  H        5.260     102.413     351.848
  H        3.820     101.382     351.714
  H        4.514     102.143     350.253
  H       12.687     101.773     352.595
  H       12.911     100.199     351.869
  H       11.317     100.910     351.937

 3  4  5  6  7  8  9  10  11  12  13  23  28  29  30  31  32 0
 6-311+G(2d,p)
 ****
 33  34 0
 6-311+G(2d,p)
 ****
 1  2  14  15  16  17  18  19  20  21  22  24  25  26  27 0
 3-21G
 ****
 35  36  37  38  39  40  41  42  43  44  45 0
 3-21G
 ****


