%nproc=1
%NoSave
%Mem=1900MB
#P OB98/GEN NMR

erre ene a

0 1
  C       -6.204    -186.437     -11.060
  O       -5.694    -185.133     -10.857
  P       -6.518    -184.077      -9.977
  C       -7.401    -183.008     -12.179
  O       -7.704    -183.522     -10.901
  C       -8.296    -181.808     -12.521
  O       -9.634    -182.310     -12.766
  C       -8.436    -180.775     -11.409
  O       -8.921    -179.557     -11.979
  C       -9.509    -181.394     -10.541
  O      -10.140    -180.436      -9.695
  C      -10.435    -182.069     -11.585
  N      -10.992    -183.336     -11.076
  C      -12.380    -183.439     -11.022
  O      -13.131    -182.563     -11.446
  N      -12.873    -184.547     -10.387
  C      -12.120    -185.506      -9.776
  O      -12.564    -186.307      -8.961
  C      -10.680    -185.467     -10.073
  C      -10.183    -184.387     -10.678
  O       -5.507    -182.841      -9.868
  O       -6.938    -184.572      -8.636
  H       -9.488    -180.203      -8.994
  H       -5.014    -182.884      -9.029
  H      -13.872    -184.549     -10.222
  H      -10.067    -186.292      -9.734
  H       -9.115    -184.305     -10.865
  H      -11.275    -181.417     -11.856
  H       -9.054    -182.156      -9.896
  H       -7.513    -180.590     -10.848
  H       -7.937    -181.338     -13.444
  H       -7.516    -183.800     -12.924
  H       -6.351    -182.692     -12.223
  P       -8.378    -178.175     -11.370
  C      -10.383    -177.551      -9.890
  O       -9.052    -178.024      -9.922
  O       -8.490    -176.982     -12.259
  O       -6.850    -178.513     -11.016
  H       -6.344    -177.685     -10.921
  H      -10.884    -177.962      -9.009
  H      -10.936    -177.851     -10.785
  H      -10.377    -176.459      -9.817
  H       -5.523    -186.996     -11.667
  H       -7.153    -186.376     -11.551
  H       -6.322    -186.925     -10.115

 3  4  5  6  7  8  9  10  11  12  13  23  28  29  30  31  32 0
 6-311+G(2d,p)
 ****
 33  34 0
 6-311+G(2d,p)
 ****
 1  2  14  15  16  17  18  19  20  21  22  24  25  26  27 0
 3-21G
 ****
 35  36  37  38  39  40  41  42  43  44  45 0
 3-21G
 ****


