%nproc=1
%NoSave
%Mem=1900MB
#P OB98/GEN NMR

erre ene a

0 1
  C      452.982     -32.279    -149.021
  O      453.411     -31.159    -148.236
  P      452.236     -30.300    -147.550
  C      453.467     -30.056    -145.284
  O      452.900     -29.392    -146.401
  C      453.556     -29.115    -144.082
  O      454.591     -28.110    -144.284
  C      452.237     -28.368    -143.778
  O      452.154     -28.237    -142.337
  C      452.487     -27.022    -144.425
  O      451.593     -26.003    -143.999
  C      453.957     -26.823    -144.063
  N      456.619     -22.464    -143.785
  C      456.079     -23.259    -142.826
  N      455.384     -24.408    -142.990
  C      455.251     -24.710    -144.299
  C      455.739     -23.989    -145.378
  C      456.452     -22.804    -145.089
  N      456.970     -21.984    -146.048
  N      455.380     -24.613    -146.572
  C      454.639     -25.641    -146.199
  N      454.608     -25.791    -144.833
  O      451.389     -31.393    -146.737
  O      451.388     -29.544    -148.537
  H      451.740     -25.200    -144.548
  H      450.598     -31.658    -147.242
  H      456.240     -22.938    -141.808
  H      454.113     -26.306    -146.870
  H      454.088     -26.562    -143.009
  H      452.366     -27.115    -145.516
  H      451.341     -28.882    -144.137
  H      453.859     -29.707    -143.204
  H      454.462     -30.425    -145.529
  H      457.459     -21.156    -145.745
  H      456.865     -22.197    -147.033
  H      452.857     -30.952    -145.051
  P      451.019     -29.054    -141.562
  C      452.651     -29.554    -139.636
  O      451.436     -28.927    -140.007
  O      451.479     -30.563    -141.882
  O      449.609     -28.747    -141.926
  H      452.428     -30.696    -141.694
  H      452.854     -29.315    -138.594
  H      453.477     -29.170    -140.249
  H      452.569     -30.643    -139.758
  H      453.837     -32.777    -149.429
  H      452.355     -31.937    -149.818
  H      452.434     -32.959    -148.403

 3  4  5  6  7  8  9  10  11  12  22  25  29  30  31  32 0
 6-311+G(2d,p)
 ****
 33  36  37 0
 6-311+G(2d,p)
 ****
 1  2  13  14  15  16  17  18  19  20  21  23  24  26 0
 3-21G
 ****
 27  28  34  35  38  39  40  41  42  43  44  45  46  47  48 0
 3-21G
 ****


