%nproc=1
%NoSave
%Mem=1900MB
#P OB98/GEN NMR

erre ene a

0 1
  C      489.349     -40.681     467.121
  O      488.604     -40.629     468.321
  P      487.016     -40.425     468.196
  C      487.051     -38.176     469.512
  O      486.737     -38.852     468.296
  C      486.260     -36.871     469.604
  O      486.584     -36.012     468.489
  C      484.749     -37.041     469.561
  O      484.250     -37.521     470.796
  C      484.319     -35.623     469.203
  O      484.353     -34.790     470.374
  C      485.418     -35.193     468.213
  N      482.137     -33.721     464.564
  C      482.247     -33.386     465.873
  N      483.132     -33.837     466.782
  C      483.979     -34.722     466.228
  C      483.974     -35.176     464.920
  C      483.006     -34.637     464.065
  N      482.899     -34.985     462.737
  N      484.978     -36.103     464.724
  C      485.584     -36.195     465.890
  N      485.024     -35.369     466.828
  O      486.465     -40.985     469.591
  O      486.386     -41.113     467.027
  H      484.207     -33.868     470.076
  H      485.594     -41.413     469.474
  H      481.522     -32.654     466.232
  H      486.429     -36.836     466.103
  H      485.712     -34.147     468.342
  H      483.308     -35.571     468.793
  H      484.464     -37.732     468.755
  H      486.560     -36.361     470.528
  H      488.118     -37.942     469.536
  H      482.086     -34.663     462.233
  H      483.449     -35.767     462.404
  H      486.819     -38.833     470.352
  P      483.094     -38.637     470.742
  C      481.119     -37.171     471.466
  O      481.773     -37.806     470.381
  O      482.894     -38.971     472.292
  O      483.396     -39.805     469.862
  H      482.799     -38.161     472.829
  H      480.271     -36.602     471.079
  H      481.808     -36.483     471.974
  H      480.750     -37.916     472.174
  H      490.385     -40.819     467.350
  H      489.222     -39.765     466.582
  H      489.004     -41.498     466.522

 3  4  5  6  7  8  9  10  11  12  22  25  29  30  31  32 0
 6-311+G(2d,p)
 ****
 33  36  37 0
 6-311+G(2d,p)
 ****
 1  2  13  14  15  16  17  18  19  20  21  23  24  26 0
 3-21G
 ****
 27  28  34  35  38  39  40  41  42  43  44  45  46  47  48 0
 3-21G
 ****


