%nproc=1
%NoSave
%Mem=1900MB
#P OB98/GEN NMR

erre ene a

0 1
  C       95.397     119.079      87.659
  O       96.657     119.706      87.811
  H       94.864     119.561      86.836
  H       94.810     119.189      88.574
  H       95.531     118.021      87.422
  P       97.611     119.122      88.962
  C       99.701     118.614      87.522
  O       98.566     118.087      88.195
  C      100.853     117.613      87.553
  O      101.189     117.270      88.909
  C      100.556     116.293      86.853
  O      100.721     116.417      85.450
  C      101.621     115.399      87.469
  O      102.886     115.630      86.819
  C      101.680     115.902      88.923
  N      101.603     113.869      93.635
  C      102.595     114.442      92.921
  N      102.555     114.921      91.660
  C      101.332     114.765      91.129
  C      100.222     114.199      91.737
  C      100.387     113.745      93.056
  N       99.368     113.171      93.785
  N       99.139     114.207      90.883
  C       99.574     114.817      89.799
  N      100.904     115.141      89.884
  O       96.919     118.611      90.177
  O       98.587     120.368      89.208
  H      103.049     116.591      86.828
  H       98.802     120.806      88.366
  H      103.550     114.529      93.431
  H       98.966     115.061      88.936
  H      102.708     115.926      89.302
  H      101.392     114.339      87.352
  H       99.567     115.910      87.123
  H      101.732     118.100      87.113
  H      100.014     119.557      87.984
  H       99.614     112.721      94.653
  H       98.501     112.967      93.310
  H       99.405     118.818      86.488
  P      100.071     115.343      84.453
  C       98.077     116.727      83.605
  O       98.493     115.642      84.427
  O      100.427     113.925      84.734
  O      100.550     115.801      83.000
  H      100.749     115.022      82.447
  H       97.014     116.833      83.665
  H       98.360     116.535      82.591
  H       98.545     117.629      83.941

 6  7  8  9  10  11  12  13  14  15  25  28  32  33  34  35 0
 6-311+G(2d,p)
 ****
 36  39  40 0
 6-311+G(2d,p)
 ****
 1  2  3  4  5  16  17  18  19  20  21  22  23  24 0
 3-21G
 ****
 26  27  29  30  31  37  38  41  42  43  44  45  46  47 0
 3-21G
 ****
 48 0
 3-21G
 ****


