%nproc=1
%NoSave
%Mem=1900MB
#P OB98/GEN NMR

erre ene a

0 1
  C     -660.476    -334.813     -15.837
  O     -661.182    -335.947     -15.382
  H     -660.128    -334.240     -14.976
  H     -661.128    -334.173     -16.442
  H     -659.608    -335.121     -16.428
  P     -661.871    -336.874     -16.487
  C     -664.219    -336.393     -15.479
  O     -663.392    -336.377     -16.635
  C     -664.996    -335.079     -15.394
  O     -664.085    -333.962     -15.453
  C     -665.981    -334.870     -16.534
  O     -667.183    -335.595     -16.364
  C     -666.200    -333.366     -16.452
  O     -667.199    -333.021     -15.483
  C     -664.816    -332.847     -16.021
  N     -664.090    -332.237     -17.137
  C     -664.235    -330.853     -17.251
  O     -664.907    -330.175     -16.487
  N     -663.592    -330.283     -18.320
  C     -662.887    -330.943     -19.284
  O     -662.392    -330.362     -20.245
  C     -662.784    -332.403     -19.116
  C     -663.392    -332.970     -18.064
  O     -662.001    -338.290     -15.753
  O     -661.119    -336.978     -17.776
  H     -661.339    -338.908     -16.113
  H     -667.373    -332.069     -15.596
  H     -663.690    -329.280     -18.416
  H     -662.231    -332.956     -19.865
  H     -663.346    -334.049     -17.931
  H     -664.919    -332.107     -15.220
  H     -666.523    -332.970     -17.407
  H     -665.498    -335.105     -17.497
  H     -665.528    -335.044     -14.426
  H     -663.600    -336.489     -14.580
  H     -664.896    -337.250     -15.532
  P     -667.588    -336.653     -17.505
  C     -669.781    -335.261     -17.871
  O     -668.662    -335.921     -18.438
  O     -668.430    -337.704     -16.651
  O     -666.392    -337.226     -18.208
  H     -668.850    -337.287     -15.874
  H     -670.378    -334.837     -18.651
  H     -669.443    -334.484     -17.218
  H     -670.366    -335.964     -17.316

 6  7  8  9  10  11  12  13  14  15  16  27  31  32  33  34  35 0
 6-311+G(2d,p)
 ****
 36  37 0
 6-311+G(2d,p)
 ****
 1  2  3  4  5  17  18  19  20  21  22  23  24  25 0
 3-21G
 ****
 26  28  29  30  38  39  40  41  42  43  44  45 0
 3-21G
 ****


