%nproc=1
%NoSave
%Mem=1900MB
#P OB98/GEN NMR

erre ene a

0 1
  C       91.329      20.682     212.465
  O       90.415      20.137     213.393
  H       92.110      19.945     212.266
  H       91.792      21.580     212.883
  H       90.824      20.925     211.527
  P       89.132      21.030     213.757
  C       87.697      19.767     212.004
  O       87.843      20.152     213.363
  C       87.185      18.332     211.902
  O       88.302      17.416     212.106
  C       86.103      17.972     212.933
  O       85.186      17.061     212.313
  C       86.884      17.210     213.991
  O       86.052      16.366     214.784
  C       87.883      16.468     213.107
  N       90.550      12.315     214.086
  C       89.489      12.518     213.224
  N       89.072      11.450     212.510
  N       88.889      13.668     213.073
  C       89.432      14.658     213.824
  C       90.474      14.586     214.716
  C       91.113      13.298     214.894
  O       92.043      13.053     215.656
  N       90.706      15.805     215.304
  C       89.807      16.610     214.765
  N       89.011      15.959     213.862
  O       89.169      22.170     212.635
  O       89.118      21.601     215.135
  H       85.411      16.935     215.259
  H       89.644      22.955     212.966
  H       90.967      11.406     214.174
  H       89.688      17.660     214.995
  H       87.431      15.608     212.596
  H       87.397      17.911     214.661
  H       89.516      10.545     212.539
  H       85.558      18.832     213.334
  H       88.325      11.589     211.841
  H       86.823      18.162     210.882
  H       88.672      19.836     211.509
  H       86.998      20.449     211.509
  P       83.624      17.409     212.374
  C       82.734      16.177     210.264
  O       82.819      16.209     211.680
  O       83.480      18.594     211.306
  O       83.138      17.822     213.724
  H       82.730      19.168     211.546
  H       82.168      15.321     209.960
  H       83.719      16.120     209.849
  H       82.251      17.066     209.916

 6  7  8  9  10  11  12  13  14  15  26  29  33  34 0
 6-311+G(2d,p)
 ****
 36  38  39  40  41 0
 6-311+G(2d,p)
 ****
 1  2  3  4  5  16  17  18  19  20  21  22  23  24  25 0
 3-21G
 ****
 27  28  30  31  32  35  37  42  43  44  45  46  47 0
 3-21G
 ****
 48  49 0
 3-21G
 ****


