%nproc=1
%NoSave
%Mem=1900MB
#P OB98/GEN NMR

erre ene a

0 1
  C     -562.056     332.648      -0.559
  O     -562.406     333.804       0.199
  P     -563.431     334.829      -0.483
  C     -565.382     334.374       1.174
  O     -564.923     334.308      -0.176
  C     -566.611     333.468       1.364
  O     -566.384     332.126       0.902
  C     -567.033     333.338       2.819
  O     -567.774     334.488       3.218
  C     -567.876     332.064       2.780
  O     -569.223     332.348       2.378
  C     -567.166     331.214       1.713
  N     -566.909     326.426       3.376
  C     -568.013     327.201       3.054
  N     -569.219     326.591       3.162
  N     -567.931     328.438       2.658
  C     -566.672     328.910       2.590
  C     -565.500     328.238       2.870
  C     -565.599     326.857       3.307
  O     -564.651     326.132       3.593
  N     -564.395     329.026       2.633
  C     -564.914     330.211       2.343
  N     -566.279     330.177       2.237
  O     -563.248     334.547      -2.056
  O     -563.166     336.254      -0.138
  H     -569.695     331.509       2.221
  H     -562.804     335.304      -2.471
  H     -567.026     325.490       3.690
  H     -564.335     331.108       2.167
  H     -567.865     330.706       1.053
  H     -567.944     331.594       3.764
  H     -569.349     325.642       3.459
  H     -566.164     333.191       3.463
  H     -570.042     327.148       2.914
  H     -567.435     333.906       0.779
  H     -565.648     335.399       1.438
  H     -564.580     334.064       1.843
  P     -566.968     335.718       3.839
  C     -567.850     337.334       2.011
  O     -566.722     336.766       2.664
  O     -565.514     335.096       4.113
  O     -567.548     336.290       5.093
  H     -565.192     335.391       4.993
  H     -567.567     338.345       1.652
  H     -568.702     337.418       2.679
  H     -568.106     336.714       1.146
  H     -561.370     332.048       0.002
  H     -561.597     332.949      -1.478
  H     -562.938     332.080      -0.770

 3  4  5  6  7  8  9  10  11  12  23  26  30  31 0
 6-311+G(2d,p)
 ****
 33  35  36  37  38 0
 6-311+G(2d,p)
 ****
 1  2  13  14  15  16  17  18  19  20  21  22  24  25 0
 3-21G
 ****
 27  28  29  32  34  39  40  41  42  43  44  45  46  47  48  49 0
 3-21G
 ****


