%nproc=1
%NoSave
%Mem=1900MB
#P OB98/GEN NMR

erre ene a

0 1
  C      -50.712     102.464      83.548
  O      -51.571     102.973      84.549
  H      -49.814     103.086      83.506
  H      -51.212     102.500      82.576
  H      -50.421     101.435      83.781
  P      -52.872     102.097      84.898
  C      -54.111     102.662      82.653
  O      -54.073     102.757      84.065
  C      -55.370     103.334      82.102
  O      -56.519     102.520      82.446
  C      -55.609     104.740      82.655
  O      -56.184     105.542      81.621
  C      -56.641     104.514      83.748
  O      -57.385     105.695      84.037
  C      -57.459     103.357      83.152
  N      -58.186     102.606      84.173
  C      -59.574     102.779      84.210
  O      -60.126     103.544      83.418
  N      -60.301     102.117      85.167
  C      -59.690     101.396      86.054
  N      -60.463     100.787      86.992
  C      -58.225     101.221      86.081
  C      -57.543     101.839      85.116
  O      -53.168     102.539      86.408
  O      -52.696     100.628      84.707
  H      -58.055     105.482      84.723
  H      -53.102     103.497      86.551
  H      -57.759     100.618      86.847
  H      -56.465     101.758      85.055
  H      -58.185     103.735      82.421
  H      -56.148     104.194      84.672
  H      -54.696     105.210      83.025
  H      -55.307     103.347      81.008
  H      -61.462     100.953      86.949
  H      -54.094     101.613      82.341
  H      -60.092     100.249      87.760
  H      -53.215     103.149      82.256
  P      -55.235     106.452      80.710
  C      -56.214     108.737      81.426
  O      -55.990     107.821      80.359
  O      -54.594     105.763      79.553
  O      -54.112     106.941      81.753
  H      -53.249     106.911      81.297
  H      -56.723     109.601      81.053
  H      -55.275     109.030      81.847
  H      -56.812     108.268      82.179

 6  7  8  9  10  11  12  13  14  15  16  26  30  31  32  33  35 0
 6-311+G(2d,p)
 ****
 37  38 0
 6-311+G(2d,p)
 ****
 1  2  3  4  5  17  18  19  20  21  22  23  24  25 0
 3-21G
 ****
 27  28  29  34  36  39  40  41  42  43  44  45  46 0
 3-21G
 ****


