%nproc=1
%NoSave
%Mem=1900MB
#P OB98/GEN NMR

erre ene a

0 1
  C       18.059     705.713     422.055
  O       18.957     705.623     423.141
  H       18.014     704.755     421.525
  H       17.064     705.947     422.433
  H       18.381     706.499     421.365
  P       20.476     705.236     422.799
  C       21.745     706.590     424.615
  O       21.304     705.307     424.184
  C       23.250     706.566     424.849
  O       23.512     705.904     426.116
  C       24.059     705.840     423.754
  O       25.037     706.726     423.188
  C       24.798     704.737     424.502
  O       26.134     704.554     424.054
  C       24.743     705.193     425.958
  N       27.776     701.508     427.745
  C       28.063     702.695     427.157
  N       27.209     703.677     426.804
  C       25.941     703.368     427.133
  C       25.507     702.200     427.752
  C       26.487     701.234     428.041
  N       26.189     700.004     428.593
  N       24.132     702.221     427.919
  C       23.748     703.356     427.374
  N       24.806     704.075     426.863
  O       21.001     706.506     421.975
  O       20.653     703.975     422.029
  H       26.557     703.930     424.676
  H       21.459     706.214     421.173
  H       29.110     702.877     426.940
  H       22.717     703.696     427.264
  H       25.571     705.882     426.202
  H       24.246     703.791     424.366
  H       23.426     705.419     422.968
  H       23.601     707.607     424.952
  H       21.240     706.855     425.547
  H       26.941     699.335     428.657
  H       25.221     699.754     428.720
  H       21.472     707.336     423.857
  P       24.739     707.262     421.694
  C       25.519     709.744     421.858
  O       25.787     708.426     421.385
  O       23.351     708.062     421.866
  O       24.635     706.171     420.668
  H       22.854     708.068     421.032
  H       26.315     710.396     421.567
  H       25.441     709.731     422.925
  H       24.599     710.094     421.437

 6  7  8  9  10  11  12  13  14  15  25  28  32  33  34  35 0
 6-311+G(2d,p)
 ****
 36  39  40 0
 6-311+G(2d,p)
 ****
 1  2  3  4  5  16  17  18  19  20  21  22  23  24 0
 3-21G
 ****
 26  27  29  30  31  37  38  41  42  43  44  45  46  47  48 0
 3-21G
 ****


