%nproc=1
%NoSave
%Mem=1900MB
#P OB98/GEN NMR

erre ene a

0 1
  C      -23.939     242.554     -53.999
  O      -24.068     241.379     -53.193
  P      -22.708     240.661     -52.742
  C      -22.544     238.872     -54.622
  O      -22.758     239.136     -53.241
  C      -22.289     237.382     -54.841
  O      -21.133     236.925     -54.107
  C      -23.436     236.498     -54.370
  O      -24.526     236.551     -55.278
  C      -22.741     235.142     -54.295
  O      -22.629     234.558     -55.603
  C      -21.344     235.531     -53.781
  N      -19.939     232.229     -50.133
  C      -19.988     232.120     -51.480
  N      -20.377     233.047     -52.381
  C      -20.728     234.188     -51.769
  C      -20.727     234.448     -50.407
  C      -20.311     233.401     -49.566
  N      -20.276     233.508     -48.195
  N      -21.158     235.734     -50.158
  C      -21.439     236.234     -51.346
  N      -21.184     235.342     -52.351
  O      -22.857     240.544     -51.154
  O      -21.477     241.412     -53.128
  H      -21.964     233.842     -55.547
  H      -22.250     241.170     -50.716
  H      -19.674     231.162     -51.885
  H      -21.825     237.230     -51.526
  H      -20.547     234.956     -54.270
  H      -23.267     234.425     -53.660
  H      -23.768     236.807     -53.371
  H      -22.109     237.221     -55.911
  H      -21.692     239.453     -54.988
  H      -20.039     232.685     -47.663
  H      -20.634     234.346     -47.760
  H      -23.420     239.212     -55.187
  P      -25.816     237.398     -54.846
  C      -26.847     235.123     -54.241
  O      -27.019     236.337     -54.953
  O      -26.045     238.316     -56.129
  O      -25.694     238.111     -53.541
  H      -25.973     237.805     -56.958
  H      -27.744     234.513     -54.373
  H      -26.702     235.325     -53.177
  H      -25.989     234.575     -54.639
  H      -24.911     242.936     -54.231
  H      -23.425     242.310     -54.905
  H      -23.384     243.295     -53.463

 3  4  5  6  7  8  9  10  11  12  22  25  29  30  31  32 0
 6-311+G(2d,p)
 ****
 33  36  37 0
 6-311+G(2d,p)
 ****
 1  2  13  14  15  16  17  18  19  20  21  23  24  26 0
 3-21G
 ****
 27  28  34  35  38  39  40  41  42  43  44  45  46  47  48 0
 3-21G
 ****


