%nproc=1
%NoSave
%Mem=1900MB
#P OB98/GEN NMR

erre ene a

0 1
  C      -18.474     299.815     -99.075
  O      -19.528     300.726     -99.296
  H      -18.470     299.080     -99.883
  H      -18.630     299.291     -98.128
  H      -17.506     300.323     -99.061
  P      -19.586     302.071     -98.427
  C      -21.753     301.170     -97.360
  O      -21.120     302.269     -97.998
  C      -23.269     301.216     -97.574
  O      -23.813     302.348     -96.836
  C      -23.687     301.383     -99.043
  O      -24.945     300.717     -99.207
  C      -23.869     302.884     -99.144
  O      -24.627     303.239    -100.277
  C      -24.502     303.187     -97.783
  N      -24.417     304.603     -97.429
  C      -25.337     305.450     -98.033
  O      -26.171     305.065     -98.853
  N      -25.244     306.773     -97.702
  C      -24.298     307.327     -96.890
  O      -24.241     308.526     -96.652
  C      -23.321     306.387     -96.313
  C      -23.426     305.089     -96.602
  O      -18.952     303.270     -99.048
  O      -18.886     301.676     -97.043
  H      -24.883     304.185    -100.233
  H      -18.449     302.457     -96.653
  H      -25.911     307.399     -98.123
  H      -22.552     306.796     -95.672
  H      -22.722     304.373     -96.192
  H      -25.563     302.901     -97.777
  H      -22.899     303.384     -99.231
  H      -22.951     300.990     -99.747
  H      -23.712     300.313     -97.138
  H      -21.527     301.224     -96.290
  H      -21.350     300.234     -97.761
  P      -25.044     299.157     -99.577
  C      -25.860     299.778    -101.938
  O      -26.087     298.978    -100.782
  O      -25.301     298.266     -98.405
  O      -23.633     298.810    -100.252
  H      -23.423     297.869    -100.107
  H      -26.615     299.572    -102.668
  H      -24.898     299.550    -102.346
  H      -25.897     300.813    -101.669

 6  7  8  9  10  11  12  13  14  15  16  26  31  32  33  34  35 0
 6-311+G(2d,p)
 ****
 36  37 0
 6-311+G(2d,p)
 ****
 1  2  3  4  5  17  18  19  20  21  22  23  24  25 0
 3-21G
 ****
 27  28  29  30  38  39  40  41  42  43  44  45 0
 3-21G
 ****


