%nproc=1
%NoSave
%Mem=1900MB
#P OB98/GEN NMR

erre ene a

0 1
  C        8.979     221.570     -65.490
  O       10.293     221.163     -65.908
  P       11.535     222.150     -65.652
  C       11.323     223.974     -67.516
  O       11.135     223.620     -66.155
  C       10.722     225.356     -67.792
  O        9.312     225.368     -67.478
  C       11.324     226.478     -66.954
  O       12.594     226.878     -67.438
  C       10.256     227.559     -67.091
  O       10.416     228.289     -68.319
  C        8.961     226.722     -67.121
  N        8.229     226.770     -65.861
  C        7.287     227.786     -65.731
  O        7.101     228.645     -66.589
  N        6.581     227.800     -64.557
  C        6.772     226.961     -63.496
  O        6.123     227.036     -62.462
  C        7.837     225.960     -63.659
  C        8.507     225.917     -64.815
  O       12.568     221.684     -66.788
  O       12.163     222.068     -64.300
  H        9.602     228.818     -68.437
  H       13.479     221.866     -66.492
  H        5.874     228.508     -64.455
  H        8.038     225.291     -62.834
  H        9.299     225.182     -64.948
  H        8.299     227.080     -67.922
  H       10.292     228.287     -66.274
  H       11.386     226.168     -65.906
  H       10.836     225.575     -68.863
  H       10.829     223.237     -68.154
  H       12.396     223.970     -67.738
  P       13.873     226.394     -66.592
  C       13.275     228.067     -64.672
  O       13.521     226.734     -65.067
  O       14.957     227.492     -67.027
  O       14.264     224.986     -66.883
  H       14.551     228.361     -67.188
  H       12.796     228.642     -65.471
  H       14.225     228.543     -64.402
  H       12.621     228.060     -63.797
  H        8.274     220.803     -65.733
  H        8.709     222.475     -65.993
  H        8.976     221.735     -64.433

 3  4  5  6  7  8  9  10  11  12  13  23  28  29  30  31  32 0
 6-311+G(2d,p)
 ****
 33  34 0
 6-311+G(2d,p)
 ****
 1  2  14  15  16  17  18  19  20  21  22  24  25  26 0
 3-21G
 ****
 27  35  36  37  38  39  40  41  42  43  44  45 0
 3-21G
 ****


