%nproc=1
%NoSave
%Mem=1900MB
#P OB98/GEN NMR

erre ene a

0 1
  C     -181.327     474.768     156.547
  O     -182.508     474.162     157.039
  H     -181.572     475.324     155.637
  H     -180.575     474.013     156.304
  H     -180.930     475.467     157.287
  P     -182.366     473.067     158.204
  C     -182.349     475.035     159.870
  O     -181.692     473.844     159.442
  C     -181.485     475.811     160.866
  O     -182.103     477.076     161.196
  C     -181.288     475.111     162.200
  O     -180.531     473.927     162.138
  C     -180.820     476.255     163.088
  O     -179.420     476.510     162.949
  C     -181.633     477.443     162.514
  N     -182.737     477.830     163.390
  C     -182.388     478.568     164.516
  O     -181.227     478.873     164.799
  N     -183.425     478.923     165.334
  C     -184.732     478.579     165.171
  O     -185.614     478.916     165.955
  C     -185.035     477.766     163.981
  C     -184.036     477.435     163.158
  O     -181.653     471.804     157.821
  O     -183.869     472.833     158.696
  H     -179.248     476.623     161.995
  H     -183.945     472.009     159.237
  H     -183.196     479.475     166.148
  H     -186.060     477.466     163.823
  H     -184.235     476.833     162.268
  H     -180.984     478.317     162.379
  H     -181.010     476.060     164.144
  H     -182.277     474.813     162.576
  H     -180.523     476.031     160.385
  H     -183.286     474.742     160.355
  H     -182.578     475.659     159.000
  P     -180.611     472.766     163.231
  C     -182.219     471.303     161.778
  O     -181.978     471.959     163.016
  O     -180.218     473.125     164.623
  O     -179.515     471.717     162.669
  H     -179.097     471.291     163.446
  H     -183.172     470.818     161.811
  H     -181.454     470.575     161.606
  H     -182.212     472.022     160.986

 6  7  8  9  10  11  12  13  14  15  16  26  31  32  33  34  35 0
 6-311+G(2d,p)
 ****
 36  37 0
 6-311+G(2d,p)
 ****
 1  2  3  4  5  17  18  19  20  21  22  23  24  25 0
 3-21G
 ****
 27  28  29  30  38  39  40  41  42  43  44  45 0
 3-21G
 ****


