%nproc=1
%NoSave
%Mem=1900MB
#P OB98/GEN NMR

erre ene a

0 1
  C     -898.260     206.856     363.705
  O     -897.520     206.327     364.803
  P     -898.140     205.098     365.632
  C     -895.880     203.937     366.101
  O     -897.160     203.836     365.494
  C     -894.950     202.813     365.622
  O     -895.540     201.521     365.921
  C     -894.670     202.869     364.112
  O     -893.280     202.810     363.795
  C     -895.530     201.737     363.554
  O     -895.060     201.249     362.303
  C     -895.560     200.732     364.711
  N     -896.730     199.852     364.637
  C     -896.560     198.650     363.966
  O     -895.530     198.339     363.382
  N     -897.660     197.828     363.928
  C     -898.890     198.122     364.420
  O     -899.850     197.364     364.319
  C     -899.040     199.432     365.067
  C     -897.950     200.225     365.142
  O     -899.570     204.815     365.404
  O     -897.890     205.551     367.161
  H     -894.090     201.071     362.381
  H     -898.670     205.282     367.682
  H     -897.550     196.937     363.459
  H     -900.000     199.718     365.455
  H     -898.030     201.211     365.604
  H     -894.670     200.095     364.702
  H     -896.540     202.123     363.394
  H     -895.000     203.819     363.680
  H     -894.010     202.899     366.188
  H     -895.980     203.869     367.181
  H     -895.460     204.929     365.898
  P     -892.190     203.876     364.289
  C     -891.470     202.255     366.169
  O     -891.850     203.562     365.825
  O     -892.500     205.301     363.988
  O     -890.870     203.429     363.507
  H     -890.380     204.216     363.203
  H     -891.630     202.119     367.247
  H     -890.410     202.106     365.966
  H     -892.060     201.508     365.634
  H     -897.714     207.663     363.263
  H     -899.207     207.214     364.052
  H     -898.414     206.088     362.976

 3  4  5  6  7  8  9  10  11  12  13  23  28  29  30  31  32 0
 6-311+G(2d,p)
 ****
 33  34 0
 6-311+G(2d,p)
 ****
 1  2  14  15  16  17  18  19  20  21  22  24  25  26  27 0
 3-21G
 ****
 35  36  37  38  39  40  41  42  43  44  45 0
 3-21G
 ****


