%nproc=1
%NoSave
%Mem=1900MB
#P OB98/GEN NMR

erre ene a

0 1
  C     -581.173      85.347      53.287
  O     -580.148      86.323      53.482
  P     -580.244      87.251      54.786
  C     -579.504      89.228      53.221
  O     -579.354      88.540      54.470
  C     -578.618      90.470      53.192
  O     -579.072      91.447      54.191
  C     -577.148      90.204      53.528
  O     -576.495      89.582      52.444
  C     -576.674      91.613      53.847
  O     -576.392      92.336      52.652
  C     -577.898      92.220      54.572
  N     -577.752      92.272      56.025
  C     -576.735      93.119      56.483
  O     -575.986      93.745      55.746
  N     -576.592      93.181      57.846
  C     -577.341      92.483      58.764
  O     -577.181      92.597      59.974
  C     -578.370      91.578      58.204
  C     -578.520      91.511      56.882
  O     -579.369      86.406      55.826
  O     -581.646      87.521      55.203
  H     -578.623      85.960      55.418
  H     -575.715      91.809      52.156
  H     -575.881      93.785      58.207
  H     -578.945      91.002      58.903
  H     -579.260      90.859      56.459
  H     -578.086      93.237      54.200
  H     -575.754      91.614      54.449
  H     -577.082      89.568      54.421
  H     -578.708      90.930      52.212
  H     -580.551      89.516      53.095
  H     -579.241      88.547      52.413
  P     -576.240      87.999      52.548
  C     -573.751      88.424      53.213
  O     -574.656      87.768      52.365
  O     -576.884      87.489      51.174
  O     -576.834      87.377      53.768
  H     -576.627      88.040      50.405
  H     -572.795      87.892      53.161
  H     -574.091      88.420      54.253
  H     -573.584      89.452      52.877
  H     -580.982      84.805      52.384
  H     -582.122      85.836      53.216
  H     -581.182      84.669      54.115

 3  4  5  6  7  8  9  10  11  12  13  24  28  29  30  31  32 0
 6-311+G(2d,p)
 ****
 33  34 0
 6-311+G(2d,p)
 ****
 1  2  14  15  16  17  18  19  20  21  22  23  25  26  27 0
 3-21G
 ****
 35  36  37  38  39  40  41  42  43  44  45 0
 3-21G
 ****


