%nproc=1
%NoSave
%Mem=1900MB
#P OB98/GEN NMR

erre ene a

0 1
  C      -51.340    -895.733     270.151
  O      -50.818    -896.513     269.093
  H      -52.432    -895.703     270.047
  H      -50.955    -894.713     270.121
  H      -51.097    -896.203     271.113
  P      -49.225    -896.503     268.866
  C      -49.511    -895.033     266.756
  O      -49.018    -896.263     267.291
  C      -48.959    -894.783     265.353
  O      -47.522    -894.653     265.396
  C      -49.220    -895.923     264.378
  O      -50.571    -896.073     264.022
  C      -48.171    -895.683     263.295
  O      -48.599    -894.763     262.300
  C      -47.011    -895.063     264.105
  N      -45.877    -895.983     264.239
  C      -45.039    -896.053     263.133
  O      -45.219    -895.413     262.091
  N      -43.985    -896.923     263.250
  C      -43.740    -897.733     264.302
  O      -42.802    -898.533     264.323
  C      -44.690    -897.643     265.438
  C      -45.700    -896.773     265.348
  O      -48.489    -897.693     269.401
  O      -48.757    -895.113     269.508
  H      -49.377    -895.183     261.849
  H      -47.787    -895.103     269.675
  H      -43.351    -896.973     262.468
  H      -44.524    -898.283     266.290
  H      -46.420    -896.683     266.167
  H      -46.655    -894.143     263.621
  H      -47.902    -896.613     262.787
  H      -48.930    -896.873     264.876
  H      -49.378    -893.843     264.969
  H      -49.181    -894.233     267.425
  H      -50.606    -895.063     266.740
  P      -51.527    -897.193     264.648
  C      -50.616    -899.273     263.379
  O      -51.702    -898.383     263.560
  O      -52.737    -896.703     265.386
  O      -50.549    -897.873     265.734
  H      -51.095    -898.143     266.502
  H      -50.871    -900.000     262.637
  H      -50.402    -899.766     264.304
  H      -49.755    -898.724     263.060

 6  7  8  9  10  11  12  13  14  15  16  26  31  32  33  34  35 0
 6-311+G(2d,p)
 ****
 36  37 0
 6-311+G(2d,p)
 ****
 1  2  3  4  5  17  18  19  20  21  22  23  24  25 0
 3-21G
 ****
 27  28  29  30  38  39  40  41  42  43  44  45 0
 3-21G
 ****


