%nproc=1
%NoSave
%Mem=1900MB
#P OB98/GEN NMR

erre ene a

0 1
  C     -194.211     332.212     -95.235
  O     -192.959     332.428     -94.613
  H     -194.882     333.028     -94.958
  H     -194.649     331.268     -94.896
  H     -194.102     332.203     -96.323
  P     -191.803     331.342     -94.829
  C     -190.989     332.803     -96.797
  O     -191.324     331.495     -96.352
  C     -190.153     332.731     -98.069
  O     -189.966     334.048     -98.624
  C     -188.754     332.148     -97.871
  O     -188.803     330.730     -97.849
  C     -188.049     332.688     -99.103
  O     -188.438     331.920    -100.258
  C     -188.631     334.111     -99.200
  N     -184.850     337.479     -99.534
  C     -185.251     336.504    -100.430
  N     -184.522     336.393    -101.561
  N     -186.266     335.706    -100.229
  C     -186.859     335.885     -99.026
  C     -186.541     336.801     -98.049
  C     -185.457     337.724     -98.313
  O     -185.087     338.618     -97.557
  N     -187.305     336.622     -96.924
  C     -188.118     335.632     -97.240
  N     -187.882     335.142     -98.505
  O     -192.141     329.936     -94.436
  O     -190.563     331.916     -93.998
  H     -188.116     332.399    -101.043
  H     -190.555     331.565     -93.088
  H     -184.055     338.059     -99.742
  H     -188.896     335.234     -96.599
  H     -188.736     334.442    -100.239
  H     -186.963     332.632     -99.028
  H     -183.646     336.874    -101.703
  H     -188.274     332.557     -96.977
  H     -184.764     335.647    -102.200
  H     -190.717     332.151     -98.809
  H     -190.426     333.289     -95.995
  H     -191.897     333.386     -96.986
  P     -187.659     329.862     -97.129
  C     -188.274     330.013     -94.623
  O     -187.479     330.517     -95.678
  O     -186.398     329.719     -97.912
  O     -188.374     328.478     -96.782
  H     -188.358     327.835     -97.534
  H     -188.047     330.542     -93.721
  H     -188.068     328.972     -94.487
  H     -189.309     330.144     -94.862

 6  7  8  9  10  11  12  13  14  15  26  29  33  34 0
 6-311+G(2d,p)
 ****
 36  38  39  40  41 0
 6-311+G(2d,p)
 ****
 1  2  3  4  5  16  17  18  19  20  21  22  23  24  25 0
 3-21G
 ****
 27  28  30  31  32  35  37  42  43  44  45  46  47 0
 3-21G
 ****
 48  49 0
 3-21G
 ****


