%nproc=1
%NoSave
%Mem=1900MB
#P OB98/GEN NMR

erre ene a

0 1
  C      270.176     332.281    -896.750
  O      269.555     333.417    -897.330
  H      270.525     332.535    -895.750
  H      271.026     331.968    -897.350
  H      269.446     331.458    -896.680
  P      268.931     333.222    -898.790
  C      266.333     333.090    -898.590
  O      267.568     332.393    -898.590
  C      265.325     332.403    -897.660
  O      264.929     331.126    -898.270
  C      265.895     332.074    -896.270
  O      264.828     332.112    -895.310
  C      266.360     330.620    -896.460
  O      266.570     330.014    -895.220
  C      265.210     330.098    -897.290
  N      265.946     325.105    -896.590
  C      265.560     326.076    -895.750
  N      265.358     327.390    -896.020
  C      265.600     327.637    -897.320
  C      266.015     326.752    -898.290
  C      266.191     325.402    -897.880
  N      266.603     324.415    -898.740
  N      266.163     327.380    -899.520
  C      265.863     328.665    -899.260
  N      265.515     328.847    -897.950
  O      269.916     332.163    -899.470
  O      268.798     334.474    -899.610
  H      265.856     330.249    -894.580
  H      270.625     332.643    -899.970
  H      265.360     325.762    -894.730
  H      265.876     329.459    -900.000
  H      264.284     329.944    -896.700
  H      267.308     330.578    -897.020
  H      266.696     332.751    -895.950
  H      264.416     333.025    -897.580
  H      265.933     333.110    -899.630
  H      266.495     334.127    -898.250
  H      266.727     323.489    -898.360
  H      266.824     324.643    -899.700
  P      264.463     333.481    -894.590
  C      262.323     334.070    -895.960
  O      263.639     334.456    -895.600
  O      265.903     334.226    -894.550
  O      263.900     333.370    -893.210
  H      266.059     334.614    -893.670
  H      261.906     334.799    -896.623
  H      261.718     334.001    -895.080
  H      262.351     333.119    -896.449

 6  7  8  9  10  11  12  13  14  15  25  28  32  33  34  35 0
 6-311+G(2d,p)
 ****
 36  37  40 0
 6-311+G(2d,p)
 ****
 1  2  3  4  5  16  17  18  19  20  21  22  23  24 0
 3-21G
 ****
 26  27  29  30  31  38  39 41  42  43  44  45  46  47  48 0
 3-21G
 ****


