%nproc=1
%NoSave
%Mem=1900MB
#P OB98/GEN NMR

erre ene a

0 1
  C      117.176     129.265     188.754
  O      116.159     129.451     189.716
  H      116.794     128.610     187.967
  H      118.049     128.790     189.209
  H      117.461     130.219     188.305
  P      116.469     130.379     190.988
  C      115.634     132.450     189.675
  O      115.467     131.626     190.817
  C      114.404     133.330     189.474
  O      113.263     132.549     189.059
  C      113.930     134.064     190.724
  O      114.756     135.153     191.096
  C      112.557     134.513     190.258
  O      112.692     135.629     189.361
  C      112.070     133.249     189.514
  N      111.255     132.377     190.358
  C      109.867     132.533     190.265
  O      109.378     133.373     189.512
  N      109.058     131.752     191.057
  C      109.589     130.908     191.886
  N      108.742     130.166     192.650
  C      111.046     130.726     192.031
  C      111.810     131.480     191.245
  O      117.904     130.734     191.206
  O      115.808     129.603     192.222
  H      111.810     135.792     188.979
  H      115.981     130.131     193.038
  H      111.439     130.030     192.757
  H      112.892     131.408     191.298
  H      111.492     133.518     188.622
  H      111.907     134.832     191.075
  H      113.802     133.368     191.561
  H      114.629     134.029     188.659
  H      107.749     130.313     192.529
  H      115.800     131.804     188.808
  H      109.068     129.541     193.375
  H      116.505     133.100     189.805
  P      114.802     135.531     192.659
  C      117.182     134.478     192.872
  O      116.351     135.612     193.055
  O      114.286     134.196     193.368
  O      114.004     136.736     193.044
  H      113.339     134.272     193.600
  H      118.178     134.711     193.187
  H      117.190     134.205     191.837
  H      116.805     133.662     193.453

 6  7  8  9  10  11  12  13  14  15  16  26  30  31  32  33  35 0
 6-311+G(2d,p)
 ****
 37  38 0
 6-311+G(2d,p)
 ****
 1  2  3  4  5  17  18  19  20  21  22  23  24  25 0
 3-21G
 ****
 27  28  29  34  36  39  40  41  42  43  44  45  46 0
 3-21G
 ****


