%nproc=1
%NoSave
%Mem=1900MB
#P OB98/GEN NMR

erre ene a

0 1
  C      215.981      82.638    -279.705
  O      216.934      83.414    -280.403
  H      215.586      83.231    -278.876
  H      216.448      81.735    -279.301
  H      215.155      82.368    -280.370
  P      217.664      82.708    -281.645
  C      219.088      81.511    -279.844
  O      218.308      81.375    -281.025
  C      219.586      80.148    -279.371
  O      218.473      79.271    -279.121
  C      220.482      79.425    -280.367
  O      221.821      79.884    -280.256
  C      220.347      77.986    -279.889
  O      221.221      77.768    -278.764
  C      218.879      77.914    -279.436
  N      216.460      73.683    -281.044
  C      217.457      73.858    -280.151
  N      218.091      75.003    -279.812
  C      217.587      76.045    -280.495
  C      216.573      76.016    -281.441
  C      215.992      74.766    -281.709
  N      214.976      74.588    -282.621
  N      216.327      77.280    -281.938
  C      217.139      78.065    -281.262
  N      217.950      77.362    -280.404
  O      218.583      83.576    -282.437
  O      216.405      82.136    -282.454
  H      221.137      78.550    -278.186
  H      215.741      81.772    -281.842
  H      217.797      72.960    -279.643
  H      217.167      79.147    -281.338
  H      218.766      77.318    -278.521
  H      220.627      77.263    -280.656
  H      220.097      79.500    -281.391
  H      220.107      80.292    -278.412
  H      218.496      81.983    -279.051
  H      214.755      73.641    -282.888
  H      214.721      75.373    -283.203
  H      219.935      82.165    -280.077
  P      222.898      79.582    -281.406
  C      223.830      77.680    -279.946
  O      223.290      78.039    -281.210
  O      224.039      80.538    -281.452
  O      222.041      79.568    -282.756
  H      222.634      79.656    -283.528
  H      224.050      76.633    -279.937
  H      223.118      77.902    -279.178
  H      224.728      78.235    -279.771

 6  7  8  9  10  11  12  13  14  15  25  28  32  33  34  35 0
 6-311+G(2d,p)
 ****
 36  39  40 0
 6-311+G(2d,p)
 ****
 1  2  3  4  5  16  17  18  19  20  21  22  23  24 0
 3-21G
 ****
 26  27  29  30  31  37  38  41  42  43  44  45  46  47 0
 3-21G
 ****
 48 0
 3-21G
 ****


