%nproc=1
%NoSave
%Mem=1900MB
#P OB98/GEN NMR

erre ene a

0 1
  C      120.389    -104.477      74.152
  O      120.062    -104.646      72.788
  H      119.709    -105.087      74.753
  H      120.268    -103.432      74.441
  H      121.415    -104.801      74.350
  P      121.034    -104.022      71.676
  C      119.587    -101.887      71.653
  O      120.181    -102.922      70.879
  C      118.679    -101.035      70.769
  O      118.030    -100.016      71.560
  C      119.414    -100.291      69.658
  O      119.755    -101.169      68.603
  C      118.386     -99.227      69.302
  O      117.366     -99.767      68.448
  C      117.810     -98.877      70.696
  N      118.392     -97.665      71.273
  C      117.891     -96.455      70.803
  O      117.036     -96.379      69.922
  N      118.426     -95.328      71.368
  C      119.448     -95.294      72.276
  O      119.928     -94.252      72.713
  C      119.962     -96.602      72.709
  C      119.418     -97.708      72.197
  O      121.751    -105.006      70.813
  O      122.057    -103.133      72.530
  H      117.816    -100.087      67.643
  H      122.896    -103.615      72.646
  H      118.086     -94.442      71.033
  H      120.774     -96.613      73.422
  H      119.786     -98.682      72.500
  H      116.724     -98.736      70.634
  H      118.822     -98.380      68.774
  H      120.307     -99.797      70.060
  H      117.899    -101.686      70.352
  H      120.381    -101.261      72.073
  H      119.018    -102.339      72.472
  P      121.107    -100.964      67.771
  C      119.827    -101.485      65.614
  O      120.967    -101.798      66.405
  O      122.367    -101.218      68.530
  O      121.030     -99.444      67.276
  H      121.651     -98.894      67.793
  H      119.827    -102.091      64.732
  H      119.858    -100.452      65.336
  H      118.938    -101.676      66.178

 6  7  8  9  10  11  12  13  14  15  16  26  31  32  33  34  35 0
 6-311+G(2d,p)
 ****
 36  37 0
 6-311+G(2d,p)
 ****
 1  2  3  4  5  17  18  19  20  21  22  23  24  25 0
 3-21G
 ****
 27  28  29  30  38  39  40  41  42  43  44  45 0
 3-21G
 ****


