%nproc=1
%NoSave
%Mem=1900MB
#P OB98/GEN NMR

erre ene a

0 1
  C     -305.220     116.552     -92.335
  O     -305.546     115.387     -93.103
  P     -306.159     114.142     -92.294
  C     -307.699     112.902     -93.978
  O     -306.432     112.957     -93.331
  C     -307.750     111.734     -94.958
  O     -307.144     112.070     -96.230
  C     -306.982     110.503     -94.470
  O     -307.707     109.821     -93.463
  C     -306.829     109.722     -95.779
  O     -308.040     109.028     -96.094
  C     -306.595     110.855     -96.797
  N     -303.143     110.919    -100.574
  C     -304.475     110.675    -100.569
  N     -305.326     110.673     -99.523
  C     -304.676     110.976     -98.382
  C     -303.327     111.256     -98.234
  C     -302.542     111.220     -99.397
  N     -301.184     111.451     -99.401
  N     -303.023     111.523     -96.917
  C     -304.172     111.386     -96.275
  N     -305.199     111.063     -97.120
  O     -307.624     114.648     -91.892
  O     -305.357     113.760     -91.091
  H     -307.916     108.592     -96.962
  H     -307.667     114.830     -90.932
  H     -304.912     110.445    -101.538
  H     -304.302     111.497     -95.199
  H     -307.119     110.672     -97.744
  H     -306.022     108.988     -95.740
  H     -305.994     110.798     -94.093
  H     -308.796     111.467     -95.130
  H     -307.894     113.838     -94.516
  H     -300.683     111.327    -100.270
  H     -300.705     111.591     -98.521
  H     -308.483     112.812     -93.216
  P     -307.029     109.700     -92.011
  C     -309.117     108.791     -90.830
  O     -307.821     108.487     -91.322
  O     -307.621     110.982     -91.268
  O     -305.540     109.581     -92.019
  H     -308.585     111.075     -91.419
  H     -309.555     107.871     -90.416
  H     -309.755     109.152     -91.633
  H     -309.046     109.531     -90.030
  H     -304.823     117.306     -92.982
  H     -304.491     116.298     -91.594
  H     -306.102     116.922     -91.856

 3  4  5  6  7  8  9  10  11  12  22  25  29  30  31  32 0
 6-311+G(2d,p)
 ****
 33  36  37 0
 6-311+G(2d,p)
 ****
 1  2  13  14  15  16  17  18  19  20  21  23  24  26 0
 3-21G
 ****
 27  28  34  35  38  39  40  41  42  43  44  45  46  47  48 0
 3-21G
 ****


