%nproc=1
%NoSave
%Mem=1900MB
#P OB98/GEN NMR

erre ene a

0 1
  C     -124.460    -137.614      77.240
  O     -123.976    -136.745      76.235
  H     -124.743    -138.561      76.776
  H     -125.340    -137.181      77.726
  H     -123.678    -137.801      77.980
  P     -123.538    -135.276      76.707
  C     -126.046    -134.685      76.638
  O     -124.737    -134.325      76.212
  C     -127.098    -134.024      75.746
  O     -127.017    -132.587      75.925
  C     -126.906    -134.319      74.257
  O     -128.183    -134.482      73.643
  C     -126.242    -133.061      73.727
  O     -126.482    -132.865      72.336
  C     -126.847    -131.987      74.630
  N     -125.501    -127.651      72.303
  C     -126.480    -128.546      72.050
  N     -126.780    -129.672      72.734
  C     -125.976    -129.805      73.803
  C     -124.934    -128.978      74.186
  C     -124.700    -127.855      73.375
  N     -123.688    -126.952      73.610
  N     -124.314    -129.475      75.316
  C     -124.978    -130.575      75.617
  N     -125.980    -130.824      74.721
  O     -122.170    -134.844      76.296
  O     -123.789    -135.353      78.285
  H     -126.176    -133.663      71.855
  H     -124.637    -135.789      78.491
  H     -127.099    -128.338      71.182
  H     -124.765    -131.227      76.457
  H     -127.823    -131.639      74.273
  H     -125.157    -133.127      73.876
  H     -126.296    -135.206      74.081
  H     -128.093    -134.331      76.090
  H     -126.202    -134.377      77.678
  H     -123.600    -126.165      72.987
  H     -123.093    -127.076      74.416
  H     -126.132    -135.774      76.582
  P     -128.910    -135.906      73.756
  C     -128.395    -136.443      71.284
  O     -129.398    -136.349      72.292
  O     -129.929    -136.034      74.837
  O     -127.679    -136.901      74.016
  H     -127.959    -137.595      74.645
  H     -128.844    -136.745      70.361
  H     -127.662    -137.165      71.577
  H     -127.926    -135.490      71.158

 6  7  8  9  10  11  12  13  14  15  25  28  32  33  34  35 0
 6-311+G(2d,p)
 ****
 36  39  40 0
 6-311+G(2d,p)
 ****
 1  2  3  4  5  16  17  18  19  20  21  22  23  24 0
 3-21G
 ****
 26  27  29  30  31  37  38  41  42  43  44  45  46  47 0
 3-21G
 ****
 48 0
 3-21G
 ****


