%nproc=1
%NoSave
%Mem=1900MB
#P OB98/GEN NMR

erre ene a

0 1
  C       94.918      46.405    -125.906
  O       95.701      47.523    -125.540
  H       95.476      45.814    -126.637
  H       93.981      46.732    -126.363
  H       94.708      45.777    -125.036
  P       95.172      48.490    -124.376
  C       94.164      50.249    -125.966
  O       93.903      49.274    -124.963
  C       92.848      50.788    -126.521
  O       91.944      49.698    -126.812
  C       92.100      51.703    -125.557
  O       92.704      52.979    -125.503
  C       90.706      51.669    -126.166
  O       90.619      52.543    -127.303
  C       90.598      50.191    -126.611
  N       89.871      49.360    -125.648
  C       88.649      48.854    -126.075
  O       88.179      49.076    -127.190
  N       87.956      48.113    -125.155
  C       88.319      47.916    -123.854
  O       87.570      47.436    -123.009
  C       89.653      48.411    -123.481
  C       90.351      49.113    -124.376
  O       96.204      49.352    -123.731
  O       94.510      47.481    -123.321
  H       95.129      47.338    -122.580
  H       89.867      52.225    -127.839
  H       87.046      47.779    -125.439
  H       90.006      48.217    -122.476
  H       91.323      49.514    -124.113
  H       90.087      50.117    -127.579
  H       89.937      51.984    -125.460
  H       92.061      51.248    -124.560
  H       93.062      51.309    -127.464
  H       94.733      49.774    -126.774
  H       94.764      51.056    -125.534
  P       92.738      53.822    -124.143
  C       90.754      55.278    -124.864
  O       91.264      54.394    -123.875
  O       93.823      54.847    -124.061
  O       92.909      52.716    -122.998
  H       93.675      52.953    -122.438
  H       89.771      55.596    -124.585
  H       90.712      54.773    -125.806
  H       91.395      56.131    -124.945

 6  7  8  9  10  11  12  13  14  15  16  27  31  32  33  34  35 0
 6-311+G(2d,p)
 ****
 36  37 0
 6-311+G(2d,p)
 ****
 1  2  3  4  5  17  18  19  20  21  22  23  24  25 0
 3-21G
 ****
 26  28  29  30  38  39  40  41  42  43  44  45 0
 3-21G
 ****


