%nproc=1
%NoSave
%Mem=1900MB
#P OB98/GEN NMR

erre ene a

0 1
  C     -560.077    1082.467    -897.000
  O     -560.716    1083.272    -896.020
  H     -560.247    1081.413    -896.770
  H     -558.994    1082.663    -897.000
  H     -560.484    1082.685    -897.990
  P     -560.732    1084.845    -896.270
  C     -563.019    1085.265    -897.500
  O     -562.272    1085.314    -896.280
  C     -564.226    1086.178    -897.410
  O     -565.052    1085.881    -896.260
  C     -563.870    1087.650    -897.240
  O     -563.306    1088.225    -898.400
  C     -565.226    1088.221    -896.850
  O     -566.056    1088.410    -898.010
  C     -565.783    1087.108    -895.940
  N     -565.694    1087.435    -894.530
  C     -566.160    1088.724    -894.170
  O     -566.609    1089.472    -895.060
  N     -566.077    1089.103    -892.860
  C     -565.608    1088.282    -891.980
  N     -565.530    1088.747    -890.680
  C     -565.134    1086.913    -892.300
  C     -565.236    1086.545    -893.570
  O     -560.291    1084.988    -897.800
  O     -559.906    1085.657    -895.320
  H     -566.900    1088.813    -897.690
  H     -560.836    1084.425    -898.410
  H     -564.771    1086.277    -891.510
  H     -564.898    1085.584    -893.900
  H     -566.827    1086.893    -896.190
  H     -565.161    1089.197    -896.370
  H     -563.206    1087.775    -896.380
  H     -564.841    1086.043    -898.320
  H     -565.849    1089.708    -890.510
  H     -563.329    1084.224    -897.730
  H     -565.153    1088.216    -889.920
  H     -562.354    1085.590    -898.310
  P     -562.087    1089.284    -898.290
  C     -560.178    1087.630    -898.840
  O     -560.919    1088.740    -899.300
  O     -561.629    1089.545    -896.910
  O     -562.660    1090.587    -899.070
  H     -562.889    1090.408    -900.000
  H     -559.447    1087.360    -899.574
  H     -560.838    1086.805    -898.674
  H     -559.687    1087.884    -897.924

 6  7  8  9  10  11  12  13  14  15  16  26  30  31  32  33  35 0
 6-311+G(2d,p)
 ****
 37  38 0
 6-311+G(2d,p)
 ****
 1  2  3  4  5  17  18  19  20  21  22  23  24  25 0
 3-21G
 ****
 27  28  29  34  36  39  40  41  42  43  44  45  46 0
 3-21G
 ****


