%nproc=1
%NoSave
%Mem=1900MB
#P OB98/GEN NMR

erre ene a

0 1
  C       15.880     -11.416      36.100
  O       15.640     -11.958      34.813
  P       15.754     -10.963      33.557
  C       14.368      -9.010      34.563
  O       14.439     -10.043      33.587
  C       12.926      -8.768      35.012
  O       12.921      -7.756      36.048
  C       11.992      -8.306      33.893
  O       10.714      -8.904      34.115
  C       11.882      -6.811      34.120
  O       10.676      -6.281      33.571
  C       11.987      -6.731      35.651
  N       12.414      -5.413      36.107
  C       11.473      -4.382      36.031
  O       10.372      -4.591      35.522
  N       11.820      -3.134      36.482
  C       13.035      -2.909      36.874
  N       13.329      -1.657      37.315
  C       14.092      -3.938      36.854
  C       13.711      -5.159      36.484
  O       15.499     -11.930      32.310
  O       17.055     -10.236      33.454
  H       10.661      -6.492      32.611
  H       16.001     -11.631      31.529
  H       15.099      -3.688      37.156
  H       14.413      -5.981      36.460
  H       11.020      -6.964      36.117
  H       12.730      -6.298      33.650
  H       12.357      -8.572      32.897
  H       12.549      -9.695      35.462
  H       12.591      -0.964      37.306
  H       14.749      -8.082      34.127
  H       14.249      -1.389      37.639
  H       15.001      -9.272      35.416
  P       10.413     -10.304      33.393
  C        9.066      -9.038      31.612
  O        9.051     -10.067      32.581
  O        9.899     -11.193      34.627
  O       11.526     -10.981      32.667
  H        9.738     -12.106      34.327
  H        8.132      -9.076      31.046
  H        9.903      -9.172      30.923
  H        9.138      -8.064      32.105
  H       15.771     -12.184      36.837
  H       15.177     -10.633      36.294
  H       16.874     -11.021      36.141

 3  4  5  6  7  8  9  10  11  12  13  21  23  27  28  29  30  32 0
 6-311+G(2d,p)
 ****
 34  35 0
 6-311+G(2d,p)
 ****
 1  2  14  15  16  17  18  19  20  22  24  25  26 0
 3-21G
 ****
 31  33  36  37  38  39  40  41  42  43  44  45  46 0
 3-21G
 ****


