%nproc=1
%NoSave
%Mem=1900MB
#P OB98/GEN NMR

erre ene a

0 1
  C     -589.074    1236.757    -188.884
  O     -589.468    1237.993    -188.258
  P     -590.769    1238.797    -188.729
  C     -589.256    1240.103    -190.332
  O     -590.435    1239.303    -190.211
  C     -589.508    1241.268    -191.303
  O     -589.882    1240.719    -192.597
  C     -590.651    1242.193    -190.934
  O     -590.290    1243.254    -190.036
  C     -590.967    1242.821    -192.290
  O     -590.014    1243.842    -192.609
  C     -590.810    1241.634    -193.232
  N     -594.331    1240.681    -196.835
  C     -593.145    1241.348    -196.870
  N     -592.295    1241.608    -195.850
  C     -592.700    1240.971    -194.741
  C     -593.852    1240.247    -194.539
  C     -594.691    1240.068    -195.667
  N     -595.883    1239.376    -195.634
  N     -593.948    1239.801    -193.240
  C     -592.857    1240.243    -192.664
  N     -592.055    1240.935    -193.535
  O     -591.232    1239.840    -187.763
  O     -591.858    1237.651    -188.982
  H     -589.144    1243.416    -192.693
  H     -592.777    1238.054    -189.006
  H     -592.888    1241.797    -197.839
  H     -592.594    1240.078    -191.611
  H     -590.354    1241.916    -194.218
  H     -591.947    1243.291    -192.331
  H     -591.522    1241.653    -190.589
  H     -588.571    1241.804    -191.435
  H     -588.470    1239.465    -190.765
  H     -596.340    1239.225    -196.525
  H     -596.065    1238.796    -194.829
  H     -588.936    1240.480    -189.370
  P     -591.388    1243.650    -188.906
  C     -592.316    1245.822    -189.994
  O     -592.527    1244.468    -189.697
  O     -590.803    1244.300    -187.713
  O     -592.086    1242.237    -188.583
  H     -592.628    1241.880    -189.305
  H     -593.146    1246.158    -190.672
  H     -591.386    1245.977    -190.521
  H     -592.344    1246.433    -189.098
  H     -588.183    1236.390    -188.419
  H     -588.890    1236.927    -189.924
  H     -589.857    1236.036    -188.774

 3  4  5  6  7  8  9  10  11  12  22  25  29  30  31  32 0
 6-311+G(2d,p)
 ****
 33  36  37 0
 6-311+G(2d,p)
 ****
 1  2  13  14  15  16  17  18  19  20  21  23  24  26 0
 3-21G
 ****
 27  28  34  35  38  39  40  41  42  43  44  45  46  47  48 0
 3-21G
 ****


