%nproc=1
%NoSave
%Mem=1900MB
#P OB98/GEN NMR

erre ene a

0 1
  C       91.133      25.404      65.220
  O       90.112      26.102      64.537
  P       89.876      27.666      64.775
  C       87.596      27.193      65.844
  O       88.854      27.835      65.998
  C       86.485      28.204      65.567
  O       85.231      27.500      65.367
  C       86.274      29.227      66.692
  O       85.971      30.482      66.072
  C       85.060      28.687      67.423
  O       84.385      29.691      68.168
  C       84.264      28.094      66.255
  N       83.276      27.120      66.693
  C       81.941      27.528      66.687
  O       81.654      28.702      66.449
  N       80.971      26.598      66.965
  C       81.317      25.424      67.397
  N       80.327      24.511      67.596
  C       82.720      25.045      67.654
  C       83.640      25.913      67.244
  O       89.514      28.445      63.554
  O       91.262      28.184      65.391
  H       91.582      28.942      64.865
  H       83.497      29.358      68.416
  H       82.951      24.105      68.132
  H       84.699      25.715      67.362
  H       83.755      28.887      65.694
  H       85.370      27.897      68.117
  H       87.154      29.343      67.331
  H       86.720      28.721      64.629
  H       79.381      24.794      67.371
  H       87.370      26.661      66.770
  H       80.512      23.510      67.619
  H       87.653      26.452      65.039
  P       86.622      31.814      66.691
  C       84.305      32.584      67.566
  O       85.662      32.333      67.863
  O       86.335      32.883      65.526
  O       88.086      31.767      66.983
  H       86.995      33.598      65.582
  H       83.822      32.991      68.458
  H       83.798      31.656      67.290
  H       84.216      33.312      66.756
  H       91.124      24.376      64.922
  H       90.967      25.471      66.275
  H       92.082      25.836      64.981

 3  4  5  6  7  8  9  10  11  12  13  24  27  28  29  30  32 0
 6-311+G(2d,p)
 ****
 34  35 0
 6-311+G(2d,p)
 ****
 1  2  14  15  16  17  18  19  20  21  22  23  25  26 0
 3-21G
 ****
 31  33  36  37  38  39  40  41  42  43  44  45  46 0
 3-21G
 ****


