%nproc=1
%NoSave
%Mem=1900MB
#P OB98/GEN NMR

erre ene a

0 1
  C     -292.703    -420.668    -126.308
  O     -293.870    -421.196    -126.909
  H     -292.155    -421.487    -125.829
  H     -292.972    -419.934    -125.546
  H     -292.059    -420.204    -127.062
  P     -294.728    -420.189    -127.819
  C     -296.955    -420.591    -126.476
  O     -296.268    -420.662    -127.718
  C     -298.460    -420.760    -126.705
  O     -299.009    -419.669    -127.448
  C     -298.829    -421.984    -127.535
  O     -298.645    -423.193    -126.826
  C     -300.278    -421.676    -127.849
  O     -301.133    -421.979    -126.748
  C     -300.219    -420.135    -128.099
  N     -300.262    -419.795    -129.515
  C     -301.542    -419.620    -130.045
  O     -302.541    -419.739    -129.346
  N     -301.648    -419.331    -131.398
  C     -300.582    -419.204    -132.117
  N     -300.764    -418.927    -133.440
  C     -299.210    -419.361    -131.584
  C     -299.138    -419.666    -130.285
  O     -294.327    -420.624    -129.294
  O     -294.539    -418.745    -127.518
  H     -300.713    -421.598    -125.950
  H     -294.433    -421.570    -129.478
  H     -298.345    -419.238    -132.222
  H     -298.169    -419.797    -129.822
  H     -301.065    -419.640    -127.595
  H     -300.638    -422.253    -128.707
  H     -298.263    -421.984    -128.471
  H     -298.952    -420.779    -125.722
  H     -301.717    -418.842    -133.775
  H     -296.748    -419.644    -125.963
  H     -300.009    -418.849    -134.113
  H     -296.579    -421.400    -125.845
  P     -297.854    -424.421    -127.505
  C     -299.964    -425.891    -127.247
  O     -298.563    -425.763    -126.975
  O     -296.366    -424.390    -127.344
  O     -298.326    -424.374    -129.035
  H     -299.299    -424.468    -129.171
  H     -300.321    -426.818    -126.849
  H     -300.125    -425.871    -128.305
  H     -300.492    -425.080    -126.790

 6  7  8  9  10  11  12  13  14  15  16  26  30  31  32  33  35 0
 6-311+G(2d,p)
 ****
 37  38 0
 6-311+G(2d,p)
 ****
 1  2  3  4  5  17  18  19  20  21  22  23  24  25 0
 3-21G
 ****
 27  28  29  34  36  39  40  41  42  43  44  45  46 0
 3-21G
 ****


