%nproc=1
%NoSave
%Mem=1900MB
#P OB98/GEN NMR

erre ene a

0 1
  C     -364.337    1190.401    -153.035
  O     -365.212    1191.521    -153.063
  P     -364.606    1192.980    -153.415
  C     -365.855    1193.094    -155.660
  O     -364.600    1193.161    -155.004
  C     -365.748    1193.434    -157.146
  O     -365.352    1194.821    -157.333
  C     -364.790    1192.581    -157.939
  O     -365.356    1192.379    -159.260
  C     -363.557    1193.441    -158.018
  O     -362.665    1193.049    -159.041
  C     -364.220    1194.832    -158.199
  N     -363.294    1195.935    -157.881
  C     -362.243    1196.132    -158.741
  O     -362.028    1195.322    -159.663
  N     -361.407    1197.245    -158.547
  C     -361.575    1197.952    -157.466
  N     -360.746    1199.018    -157.289
  C     -362.600    1197.652    -156.441
  C     -363.430    1196.648    -156.718
  O     -363.325    1193.303    -152.708
  O     -365.793    1193.976    -152.951
  H     -363.088    1193.231    -159.931
  H     -365.390    1194.784    -152.600
  H     -362.643    1198.217    -155.505
  H     -364.217    1196.375    -156.042
  H     -364.568    1194.954    -159.231
  H     -363.003    1193.411    -157.069
  H     -364.587    1191.587    -157.493
  H     -366.773    1193.359    -157.590
  H     -360.036    1199.190    -157.998
  H     -366.550    1193.777    -155.161
  H     -360.846    1199.684    -156.502
  H     -366.277    1192.094    -155.509
  P     -366.140    1191.017    -159.563
  C     -368.546    1191.962    -159.688
  O     -367.626    1191.162    -158.983
  O     -365.457    1189.997    -158.516
  O     -365.982    1190.467    -160.965
  H     -365.531    1189.093    -158.876
  H     -369.554    1191.707    -159.308
  H     -368.510    1191.763    -160.754
  H     -368.377    1193.002    -159.493
  H     -364.893    1189.520    -152.788
  H     -363.577    1190.561    -152.299
  H     -363.883    1190.279    -153.996

 3  4  5  6  7  8  9  10  11  12  13  23  27  28  29  30  32 0
 6-311+G(2d,p)
 ****
 34  35 0
 6-311+G(2d,p)
 ****
 1  2  14  15  16  17  18  19  20  21  22  24  25  26 0
 3-21G
 ****
 31  33  36  37  38  39  40  41  42  43  44  45  46 0
 3-21G
 ****


