%nproc=1
%NoSave
%Mem=1900MB
#P OB98/GEN NMR

erre ene a

0 1
  C      677.075    -255.111    -891.670
  O      678.241    -255.860    -891.980
  H      676.645    -255.492    -890.740
  H      676.336    -255.212    -892.470
  H      677.341    -254.049    -891.540
  P      679.044    -255.415    -893.300
  C      680.925    -254.192    -891.970
  O      679.861    -254.093    -892.900
  C      681.665    -252.860    -891.830
  O      682.358    -252.587    -893.100
  C      680.727    -251.660    -891.580
  O      681.444    -250.669    -890.810
  C      680.498    -251.132    -893.000
  O      679.976    -249.833    -892.960
  C      681.900    -251.296    -893.560
  N      681.140    -248.271    -897.600
  C      681.116    -248.018    -896.270
  N      681.353    -248.876    -895.250
  C      681.652    -250.106    -895.740
  C      681.702    -250.508    -897.050
  C      681.423    -249.508    -898.020
  N      681.438    -249.769    -899.380
  N      682.043    -251.843    -897.160
  C      682.162    -252.254    -895.880
  N      681.936    -251.222    -895.010
  O      677.894    -254.865    -894.260
  O      679.857    -256.496    -893.960
  H      680.568    -249.237    -892.460
  H      677.574    -255.600    -894.850
  H      680.894    -246.996    -895.990
  H      682.422    -253.255    -895.570
  H      682.603    -250.527    -893.170
  H      679.768    -251.772    -893.540
  H      679.793    -251.932    -891.060
  H      682.425    -252.931    -891.040
  H      681.628    -254.981    -892.300
  H      680.522    -254.490    -890.980
  H      681.214    -249.005    -900.000
  H      681.617    -250.714    -899.710
  P      681.721    -250.928    -889.270
  C      684.305    -250.877    -889.690
  O      683.213    -251.524    -889.040
  O      680.820    -252.250    -888.980
  O      681.338    -249.823    -888.340
  H      680.313    -252.134    -888.150
  H      685.216    -251.381    -889.444
  H      684.361    -249.859    -889.365
  H      684.157    -250.905    -890.749

 6  7  8  9  10  11  12  13  14  15  25  28  32  33  34  35 0
 6-311+G(2d,p)
 ****
 36  37  40 0
 6-311+G(2d,p)
 ****
 1  2  3  4  5  16  17  18  19  20  21  22  23  24 0
 3-21G
 ****
 26  27  29  30  31  38  39 41  42  43  44  45  46  47  48 0
 3-21G
 ****


