%nproc=1
%NoSave
%Mem=1900MB
#P OB98/GEN NMR

erre ene a

0 1
  C      137.927    -427.646     177.375
  O      138.886    -426.863     176.697
  H      136.933    -427.244     177.163
  H      138.099    -427.601     178.453
  H      137.961    -428.685     177.036
  P      140.413    -427.347     176.689
  C      140.397    -427.386     174.107
  O      140.649    -428.112     175.301
  C      140.345    -428.326     172.899
  O      139.189    -429.205     173.045
  C      140.197    -427.608     171.543
  O      140.842    -428.429     170.561
  C      138.687    -427.626     171.373
  O      138.283    -427.264     170.078
  C      138.400    -429.058     171.843
  N      136.998    -429.359     172.106
  C      136.220    -429.799     171.039
  O      136.634    -429.956     169.890
  N      134.907    -430.064     171.330
  C      134.315    -429.949     172.552
  O      133.140    -430.230     172.758
  C      135.186    -429.472     173.635
  C      136.467    -429.208     173.372
  O      140.866    -428.086     177.904
  O      141.238    -425.988     176.488
  H      141.606    -425.700     177.346
  H      138.607    -427.939     169.441
  H      134.332    -430.390     170.569
  H      134.744    -429.357     174.617
  H      137.134    -428.865     174.155
  H      138.788    -429.774     171.114
  H      138.229    -426.894     172.044
  H      140.643    -426.609     171.536
  H      141.235    -428.968     172.911
  H      141.205    -426.658     173.974
  H      139.446    -426.849     174.207
  P      142.358    -428.207     170.082
  C      142.919    -430.702     170.496
  O      143.266    -429.348     170.760
  O      142.872    -426.825     170.308
  O      142.371    -428.583     168.528
  H      143.095    -428.102     168.081
  H      143.601    -431.351     171.005
  H      142.972    -430.885     169.443
  H      141.923    -430.889     170.841

 6  7  8  9  10  11  12  13  14  15  16  27  31  32  33  34  35 0
 6-311+G(2d,p)
 ****
 36  37 0
 6-311+G(2d,p)
 ****
 1  2  3  4  5  17  18  19  20  21  22  23  24  25 0
 3-21G
 ****
 26  28  29  30  38  39  40  41  42  43  44  45 0
 3-21G
 ****


