%nproc=1
%NoSave
%Mem=1900MB
#P OB98/GEN NMR

erre ene a

0 1
  C      540.799     424.950    -174.937
  O      540.445     425.388    -176.245
  P      538.963     425.760    -176.714
  C      539.016     428.354    -176.358
  O      538.970     427.262    -177.260
  C      538.539     429.686    -176.986
  O      538.223     430.637    -175.926
  C      539.661     430.315    -177.811
  O      539.872     429.891    -179.149
  C      539.456     431.816    -177.658
  O      538.671     432.373    -178.715
  C      538.703     431.930    -176.324
  N      538.935     434.825    -172.101
  C      537.859     434.549    -172.919
  N      536.696     435.168    -172.592
  N      537.908     433.764    -173.959
  C      539.152     433.289    -174.212
  C      540.302     433.501    -173.492
  C      540.225     434.329    -172.303
  O      541.146     434.588    -171.547
  N      541.380     432.877    -174.072
  C      540.885     432.293    -175.151
  N      539.530     432.523    -175.278
  O      537.876     425.390    -175.758
  O      538.758     424.872    -178.042
  H      539.211     432.361    -179.530
  H      537.810     424.637    -178.084
  H      538.841     435.421    -171.299
  H      541.448     431.713    -175.858
  H      537.825     432.578    -176.431
  H      540.419     432.338    -177.670
  H      536.614     435.872    -171.882
  H      540.599     430.092    -177.294
  H      535.957     435.141    -173.306
  H      537.615     429.541    -177.540
  H      540.046     428.449    -176.004
  H      538.411     428.134    -175.469
  P      541.259     429.374    -179.768
  C      541.404     426.818    -179.692
  O      540.994     427.951    -180.447
  O      542.143     428.991    -178.481
  O      541.976     430.362    -180.624
  H      543.083     428.916    -178.726
  H      541.457     425.957    -180.367
  H      540.661     426.609    -178.912
  H      542.377     426.978    -179.233
  H      541.853     424.770    -174.894
  H      540.274     424.046    -174.709
  H      540.537     425.704    -174.225

 3  4  5  6  7  8  9  10  11  12  23  26  30  31 0
 6-311+G(2d,p)
 ****
 33  35  36  37  38 0
 6-311+G(2d,p)
 ****
 1  2  13  14  15  16  17  18  19  20  21  22  24  25 0
 3-21G
 ****
 27  28  29  32  34  39  40  41  42  43  44  45  46  47  48  49 0
 3-21G
 ****


