%nproc=1
%NoSave
%Mem=1900MB
#P OB98/GEN NMR

erre ene a

0 1
  C      357.513    -123.505      -3.887
  O      357.253    -123.421      -5.272
  H      356.561    -123.540      -3.353
  H      358.067    -122.621      -3.562
  H      358.080    -124.408      -3.646
  P      358.456    -123.649      -6.303
  C      359.829    -125.718      -7.005
  O      358.590    -125.237      -6.502
  C      359.666    -127.114      -7.611
  O      359.233    -128.031      -6.565
  C      358.631    -127.189      -8.744
  O      359.059    -128.215      -9.648
  C      357.387    -127.629      -7.995
  O      356.410    -128.145      -8.872
  C      357.992    -128.619      -6.996
  N      357.092    -128.900      -5.876
  C      356.299    -130.034      -5.984
  O      356.301    -130.767      -6.974
  N      355.459    -130.284      -4.934
  C      355.297    -129.485      -3.838
  O      354.503    -129.741      -2.940
  C      356.131    -128.274      -3.797
  C      356.981    -128.042      -4.801
  O      359.733    -122.952      -5.971
  O      357.866    -123.171      -7.714
  H      355.653    -128.506      -8.362
  H      358.583    -122.821      -8.275
  H      354.881    -131.107      -4.994
  H      356.020    -127.615      -2.946
  H      357.612    -127.159      -4.800
  H      358.223    -129.572      -7.487
  H      356.935    -126.782      -7.465
  H      358.501    -126.241      -9.271
  H      360.649    -127.464      -7.952
  H      360.541    -125.750      -6.174
  H      360.206    -125.025      -7.766
  P      360.228    -127.974     -10.719
  C      362.801    -128.042     -10.595
  O      361.579    -128.639     -10.164
  O      360.379    -126.552     -11.152
  O      359.841    -128.906     -11.963
  H      360.200    -128.524     -12.785
  H      363.627    -128.568     -10.163
  H      362.827    -127.019     -10.283
  H      362.865    -128.092     -11.662

 6  7  8  9  10  11  12  13  14  15  16  26  31  32  33  34  35 0
 6-311+G(2d,p)
 ****
 36  37 0
 6-311+G(2d,p)
 ****
 1  2  3  4  5  17  18  19  20  21  22  23  24  25 0
 3-21G
 ****
 27  28  29  30  38  39  40  41  42  43  44  45 0
 3-21G
 ****


