%nproc=1
%NoSave
%Mem=1900MB
#P OB98/GEN NMR

erre ene a

0 1
  C      137.068     104.600    -195.319
  O      135.719     104.887    -195.705
  P      134.587     103.803    -195.364
  C      134.024     102.626    -193.110
  O      134.297     103.844    -193.789
  C      133.453     102.900    -191.714
  O      134.424     103.517    -190.845
  C      132.259     103.844    -191.718
  O      131.056     103.161    -192.040
  C      132.241     104.301    -190.269
  O      131.615     103.287    -189.448
  C      133.734     104.404    -189.939
  N      135.476     108.526    -187.445
  C      134.970     107.353    -187.009
  N      134.513     106.311    -187.726
  C      134.623     106.562    -189.045
  C      135.118     107.712    -189.646
  C      135.561     108.730    -188.785
  N      136.080     109.922    -189.240
  N      135.068     107.612    -191.019
  C      134.567     106.412    -191.245
  N      134.273     105.744    -190.088
  O      135.358     102.411    -195.555
  O      133.387     103.889    -196.240
  H      131.815     103.509    -188.519
  H      134.744     101.737    -195.904
  H      134.931     107.235    -185.922
  H      134.401     105.983    -192.231
  H      133.960     104.071    -188.915
  H      131.670     105.223    -190.122
  H      132.437     104.705    -192.383
  H      133.160     101.935    -191.273
  H      134.934     102.028    -193.033
  H      136.398     110.593    -188.555
  H      136.165     110.066    -190.234
  H      133.320     102.031    -193.711
  P      130.429     103.419    -193.497
  C      130.702     101.957    -195.635
  O      130.467     101.993    -194.239
  O      131.571     104.271    -194.230
  O      129.115     104.119    -193.487
  H      131.164     104.869    -194.895
  H      130.999     100.946    -195.915
  H      131.504     102.650    -195.916
  H      129.784     102.222    -196.170
  H      137.703     105.410    -195.612
  H      137.393     103.701    -195.799
  H      137.116     104.475    -194.257

 3  4  5  6  7  8  9  10  11  12  22  25  29  30  31  32 0
 6-311+G(2d,p)
 ****
 33  36  37 0
 6-311+G(2d,p)
 ****
 1  2  13  14  15  16  17  18  19  20  21  23  24  26 0
 3-21G
 ****
 27  28  34  35  38  39  40  41  42  43  44  45  46  47  48 0
 3-21G
 ****


