%nproc=1
%NoSave
%Mem=1900MB
#P OB98/GEN NMR

erre ene a

0 1
  C      396.964    -263.525    -121.632
  O      396.016    -264.503    -121.247
  P      396.169    -265.262    -119.846
  C      394.352    -264.031    -118.449
  O      395.724    -264.227    -118.704
  C      393.933    -264.686    -117.126
  O      392.559    -264.318    -116.859
  C      393.960    -266.212    -117.132
  O      393.966    -266.674    -115.778
  C      392.633    -266.544    -117.772
  O      392.214    -267.878    -117.491
  C      391.704    -265.429    -117.226
  N      390.716    -265.006    -118.228
  C      389.388    -264.959    -117.820
  O      389.033    -265.186    -116.662
  N      388.464    -264.740    -118.813
  C      388.747    -264.603    -120.139
  O      387.915    -264.710    -121.031
  C      390.169    -264.418    -120.465
  C      391.076    -264.652    -119.513
  O      397.757    -265.367    -119.671
  O      395.516    -266.599    -119.778
  H      392.204    -267.974    -116.510
  H      398.073    -266.237    -119.971
  H      387.494    -264.853    -118.542
  H      390.427    -264.158    -121.484
  H      392.138    -264.573    -119.744
  H      391.163    -265.763    -116.331
  H      392.725    -266.451    -118.862
  H      394.798    -266.645    -117.682
  H      394.556    -264.293    -116.309
  H      393.767    -264.434    -119.280
  H      394.123    -262.958    -118.401
  P      394.348    -268.210    -115.511
  C      396.802    -267.454    -115.411
  O      395.879    -268.379    -115.953
  O      393.401    -269.220    -116.066
  O      394.431    -268.285    -113.911
  H      394.358    -269.216    -113.622
  H      397.778    -267.935    -115.339
  H      396.493    -267.116    -114.414
  H      396.876    -266.589    -116.075
  H      396.700    -263.130    -122.591
  H      397.935    -263.971    -121.686
  H      396.974    -262.735    -120.911

 3  4  5  6  7  8  9  10  11  12  13  23  28  29  30  31  32 0
 6-311+G(2d,p)
 ****
 33  34 0
 6-311+G(2d,p)
 ****
 1  2  14  15  16  17  18  19  20  21  22  24  25  26  27 0
 3-21G
 ****
 35  36  37  38  39  40  41  42  43  44  45 0
 3-21G
 ****


