%nproc=1
%NoSave
%Mem=1900MB
#P OB98/GEN NMR

erre ene a

0 1
  C       18.570     -68.871    -358.803
  O       19.918     -68.959    -359.227
  H       18.089     -69.838    -358.966
  H       18.035     -68.113    -359.380
  H       18.521     -68.631    -357.737
  P       20.840     -67.657    -359.094
  C       20.421     -65.197    -359.762
  O       20.204     -66.564    -360.083
  C       19.335     -64.333    -360.390
  O       18.036     -64.715    -359.894
  C       19.487     -62.839    -360.103
  O       20.444     -62.262    -360.978
  C       18.069     -62.362    -360.366
  O       17.838     -62.284    -361.787
  C       17.240     -63.506    -359.755
  N       13.570     -62.370    -356.442
  C       13.544     -62.387    -357.825
  N       12.386     -62.004    -358.406
  N       14.567     -62.726    -358.568
  C       15.677     -63.016    -357.851
  C       15.830     -63.017    -356.478
  C       14.675     -62.698    -355.669
  O       14.653     -62.687    -354.440
  N       17.122     -63.302    -356.120
  C       17.742     -63.508    -357.269
  N       16.910     -63.331    -358.350
  O       22.312     -67.863    -359.290
  O       20.499     -67.085    -357.640
  H       18.548     -61.724    -362.155
  H       21.115     -67.434    -356.970
  H       12.756     -62.083    -355.929
  H       18.781     -63.788    -357.372
  H       16.295     -63.668    -360.291
  H       17.860     -61.377    -359.951
  H       11.688     -61.473    -357.903
  H       19.729     -62.651    -359.050
  H       12.363     -61.961    -359.418
  H       19.337     -64.526    -361.470
  H       21.406     -64.919    -360.148
  H       20.421     -65.055    -358.672
  P       20.986     -60.767    -360.739
  C       19.878     -58.436    -360.869
  O       19.785     -59.813    -361.206
  O       22.298     -60.470    -361.376
  O       20.979     -60.584    -359.155
  H       21.820     -60.877    -358.718
  H       19.017     -57.919    -361.239
  H       20.760     -58.020    -361.309
  H       19.927     -58.332    -359.805

 6  7  8  9  10  11  12  13  14  15  26  29  33  34 0
 6-311+G(2d,p)
 ****
 36  38  39  40  41 0
 6-311+G(2d,p)
 ****
 1  2  3  4  5  16  17  18  19  20  21  22  23  24  25 0
 3-21G
 ****
 27  28  30  31  32  35  37  42  43  44  45  46  47 0
 3-21G
 ****
 48  49 0
 3-21G
 ****


