%nproc=1
%NoSave
%Mem=1900MB
#P OB98/GEN NMR

erre ene a

0 1
  C     -153.074     550.750    -755.739
  O     -151.816     550.223    -755.352
  H     -153.180     550.639    -756.817
  H     -153.140     551.808    -755.484
  H     -153.883     550.195    -755.247
  P     -151.394     550.304    -753.811
  C     -149.048     551.345    -754.131
  O     -149.795     550.185    -753.782
  C     -147.661     550.945    -754.650
  O     -146.945     550.194    -753.658
  C     -147.699     550.066    -755.912
  O     -147.887     550.861    -757.069
  C     -146.311     549.443    -755.847
  O     -145.322     550.406    -756.279
  C     -146.152     549.188    -754.332
  N     -144.682     544.564    -752.817
  C     -143.941     545.610    -753.314
  N     -142.615     545.387    -753.464
  N     -144.444     546.770    -753.659
  C     -145.781     546.820    -753.523
  C     -146.639     545.853    -753.049
  C     -146.061     544.598    -752.621
  O     -146.686     543.659    -752.141
  N     -147.953     546.241    -753.138
  C     -147.890     547.472    -753.617
  N     -146.597     547.880    -753.878
  O     -152.092     549.354    -752.886
  O     -151.652     551.836    -753.411
  H     -144.503     549.908    -756.476
  H     -152.550     551.960    -753.045
  H     -144.247     543.689    -752.578
  H     -148.747     548.127    -753.792
  H     -145.110     549.299    -754.005
  H     -146.214     548.568    -756.483
  H     -142.203     544.470    -753.365
  H     -148.442     549.272    -755.822
  H     -142.057     546.118    -753.889
  H     -147.095     551.874    -754.842
  H     -148.948     551.958    -753.227
  H     -149.575     551.920    -754.901
  P     -148.727     550.322    -758.337
  C     -146.816     550.791    -760.025
  O     -148.128     551.117    -759.598
  O     -150.205     550.396    -758.181
  O     -148.147     548.845    -758.569
  H     -148.601     548.161    -758.016
  H     -146.554     551.397    -760.867
  H     -146.777     549.758    -760.302
  H     -146.126     550.972    -759.228

 6  7  8  9  10  11  12  13  14  15  26  29  33  34 0
 6-311+G(2d,p)
 ****
 36  38  39  40  41 0
 6-311+G(2d,p)
 ****
 1  2  3  4  5  16  17  18  19  20  21  22  23  24  25 0
 3-21G
 ****
 27  28  30  31  32  35  37  42  43  44  45  46  47 0
 3-21G
 ****
 48  49 0
 3-21G
 ****


