%nproc=1
%NoSave
%Mem=1900MB
#P OB98/GEN NMR

erre ene a

0 1
  C     1221.464    -245.761    1639.157
  O     1222.750    -246.354    1639.021
  P     1223.003    -247.279    1637.711
  C     1221.219    -249.106    1638.307
  O     1222.611    -248.759    1638.116
  C     1221.039    -250.605    1638.257
  O     1221.306    -251.100    1636.917
  C     1221.949    -251.410    1639.179
  O     1221.459    -251.433    1640.510
  C     1221.854    -252.783    1638.561
  O     1220.652    -253.448    1638.967
  C     1221.817    -252.491    1637.060
  N     1224.741    -255.349    1634.096
  C     1223.387    -255.487    1634.415
  N     1222.729    -256.525    1633.876
  N     1222.713    -254.621    1635.137
  C     1223.527    -253.588    1635.613
  C     1224.866    -253.367    1635.362
  C     1225.571    -254.348    1634.539
  O     1226.771    -254.318    1634.301
  N     1225.286    -252.237    1635.978
  C     1224.224    -251.765    1636.599
  N     1223.112    -252.561    1636.409
  O     1224.600    -247.322    1637.593
  O     1222.372    -246.762    1636.465
  H     1220.510    -253.242    1639.910
  H     1224.863    -247.595    1636.722
  H     1225.198    -256.044    1633.536
  H     1224.172    -250.854    1637.187
  H     1221.130    -253.135    1636.515
  H     1222.699    -253.451    1638.852
  H     1223.212    -257.265    1633.350
  H     1222.975    -251.047    1639.128
  H     1221.769    -256.704    1634.122
  H     1219.977    -250.835    1638.512
  H     1220.629    -248.603    1637.536
  H     1220.900    -248.702    1639.256
  P     1222.404    -250.777    1641.634
  C     1223.606    -253.081    1642.029
  O     1222.853    -251.998    1642.589
  O     1221.369    -249.949    1642.572
  O     1223.505    -249.908    1641.089
  H     1221.831    -249.195    1643.012
  H     1224.043    -253.642    1642.833
  H     1224.438    -252.688    1641.385
  H     1222.925    -253.719    1641.441
  H     1221.432    -245.182    1640.056
  H     1220.720    -246.529    1639.200
  H     1221.273    -245.126    1638.317

 3  4  5  6  7  8  9  10  11  12  23  26  30  31 0
 6-311+G(2d,p)
 ****
 33  35  36  37  38 0
 6-311+G(2d,p)
 ****
 1  2  13  14  15  16  17  18  19  20  21  22  24  25 0
 3-21G
 ****
 27  28  29  32  34  39  40  41  42  43  44  45  46  47  48  49 0
 3-21G
 ****


