%nproc=1
%NoSave
%Mem=1900MB
#P OB98/GEN NMR

erre ene a

0 1
  C     -319.078     -70.898    -217.818
  O     -317.939     -70.385    -217.156
  H     -319.926     -70.874    -217.127
  H     -318.899     -71.933    -218.121
  H     -319.317     -70.288    -218.694
  P     -316.623     -70.171    -218.041
  C     -316.688     -67.545    -218.059
  O     -316.781     -68.759    -218.793
  C     -315.334     -66.886    -218.315
  O     -315.326     -66.179    -219.572
  C     -314.968     -65.818    -217.297
  O     -314.641     -66.354    -216.036
  C     -313.801     -65.150    -218.007
  O     -312.599     -65.920    -217.865
  C     -314.289     -65.165    -219.478
  N     -314.765     -63.863    -219.921
  C     -313.838     -62.817    -219.844
  O     -312.697     -63.027    -219.432
  N     -314.237     -61.556    -220.208
  C     -315.444     -61.358    -220.636
  N     -315.781     -60.085    -220.973
  C     -316.445     -62.437    -220.758
  C     -316.043     -63.649    -220.381
  O     -316.820     -71.227    -219.224
  O     -315.330     -70.301    -217.303
  H     -311.946     -65.527    -218.476
  H     -317.671     -71.141    -219.685
  H     -317.438     -62.227    -221.129
  H     -316.715     -64.497    -220.438
  H     -313.480     -65.479    -220.149
  H     -313.590     -64.157    -217.607
  H     -315.776     -65.080    -217.215
  H     -314.573     -67.675    -218.360
  H     -315.075     -59.368    -220.856
  H     -316.836     -67.723    -216.991
  H     -316.699     -59.807    -221.285
  H     -317.497     -66.891    -218.400
  P     -315.525     -66.004    -214.746
  C     -315.381     -68.162    -213.350
  O     -316.168     -67.389    -214.252
  O     -316.505     -64.894    -214.930
  O     -314.427     -65.719    -213.614
  H     -313.834     -66.467    -213.425
  H     -315.909     -69.056    -213.093
  H     -315.191     -67.593    -212.464
  H     -314.452     -68.418    -213.816

 6  7  8  9  10  11  12  13  14  15  16  26  30  31  32  33  35 0
 6-311+G(2d,p)
 ****
 37  38 0
 6-311+G(2d,p)
 ****
 1  2  3  4  5  17  18  19  20  21  22  23  24  25 0
 3-21G
 ****
 27  28  29  34  36  39  40  41  42  43  44  45  46 0
 3-21G
 ****


