%nproc=1
%NoSave
%Mem=1900MB
#P OB98/GEN NMR

erre ene a

0 1
  C      154.045    -314.009    -290.017
  O      154.194    -312.675    -290.457
  H      153.834    -314.004    -288.945
  H      154.969    -314.568    -290.191
  H      153.215    -314.492    -290.539
  P      154.490    -312.461    -292.019
  C      156.553    -313.045    -293.489
  O      156.070    -312.658    -292.209
  C      158.038    -313.382    -293.400
  O      158.205    -314.705    -292.840
  C      158.745    -313.418    -294.747
  O      159.054    -312.125    -295.229
  C      159.973    -314.249    -294.412
  O      161.006    -313.445    -293.826
  C      159.431    -315.248    -293.385
  N      161.630    -319.293    -295.586
  C      162.149    -318.180    -295.026
  N      161.492    -317.151    -294.448
  C      160.167    -317.369    -294.457
  C      159.495    -318.458    -294.990
  C      160.286    -319.459    -295.577
  N      159.759    -320.583    -296.169
  N      158.130    -318.306    -294.843
  C      157.981    -317.150    -294.230
  N      159.183    -316.551    -293.973
  O      154.276    -310.886    -292.215
  O      153.631    -313.258    -292.940
  H      160.597    -312.993    -293.061
  H      153.392    -310.724    -292.598
  H      163.232    -318.098    -295.055
  H      157.030    -316.706    -293.957
  H      160.121    -315.399    -292.545
  H      160.383    -314.714    -295.307
  H      158.135    -313.968    -295.477
  H      158.521    -312.663    -292.724
  H      156.412    -312.221    -294.196
  H      155.981    -313.913    -293.836
  H      160.384    -321.224    -296.631
  H      158.757    -320.659    -296.267
  P      159.271    -311.950    -296.810
  C      160.373    -313.700    -298.397
  O      160.490    -312.901    -297.227
  O      159.872    -310.475    -296.954
  O      158.039    -312.131    -297.630
  H      159.541    -310.061    -297.775
  H      161.268    -314.271    -298.530
  H      160.224    -313.068    -299.247
  H      159.539    -314.363    -298.294

 6  7  8  9  10  11  12  13  14  15  25  28  32  33  34  35 0
 6-311+G(2d,p)
 ****
 36  37  40 0
 6-311+G(2d,p)
 ****
 1  2  3  4  5  16  17  18  19  20  21  22  23  24 0
 3-21G
 ****
 26  27  29  30  31  38  39 41  42  43  44  45  46  47  48 0
 3-21G
 ****


