%nproc=1
%NoSave
%Mem=1900MB
#P OB98/GEN NMR

erre ene a

0 1
  C      192.490     -73.788    -209.283
  O      191.971     -72.642    -209.983
  P      191.920     -71.223    -209.230
  C      189.674     -70.404    -210.296
  O      191.069     -70.198    -210.123
  C      189.143     -69.498    -211.411
  O      189.538     -70.005    -212.707
  C      187.622     -69.400    -211.470
  O      187.110     -68.545    -210.465
  C      187.410     -68.868    -212.884
  O      187.574     -67.437    -212.926
  C      188.543     -69.568    -213.663
  N      188.060     -70.679    -214.478
  C      187.720     -70.381    -215.793
  O      187.754     -69.243    -216.255
  N      187.301     -71.436    -216.556
  C      187.125     -72.724    -216.125
  O      186.726     -73.623    -216.856
  C      187.426     -72.959    -214.705
  C      187.865     -71.946    -213.958
  O      193.416     -70.680    -209.439
  O      191.576     -71.271    -207.778
  H      188.425     -67.242    -212.491
  H      193.655     -70.085    -208.704
  H      187.077     -71.246    -217.520
  H      187.278     -73.962    -214.318
  H      188.091     -72.107    -212.906
  H      189.051     -68.850    -214.317
  H      186.409     -69.085    -213.266
  H      187.183     -70.400    -211.393
  H      189.588     -68.503    -211.287
  H      189.154     -70.164    -209.363
  H      189.497     -71.458    -210.538
  P      186.101     -69.212    -209.403
  C      183.919     -67.819    -209.793
  O      185.073     -68.046    -209.010
  O      187.058     -69.364    -208.128
  O      185.497     -70.487    -209.891
  H      187.713     -68.649    -208.073
  H      183.532     -68.750    -210.218
  H      184.160     -67.128    -210.604
  H      183.145     -67.371    -209.162
  H      192.453     -74.644    -209.924
  H      191.899     -73.970    -208.410
  H      193.504     -73.601    -208.996

 3  4  5  6  7  8  9  10  11  12  13  23  28  29  30  31  32 0
 6-311+G(2d,p)
 ****
 33  34 0
 6-311+G(2d,p)
 ****
 1  2  14  15  16  17  18  19  20  21  22  24  25  26 0
 3-21G
 ****
 27  35  36  37  38  39  40  41  42  43  44  45 0
 3-21G
 ****


