%nproc=1
%NoSave
%Mem=1900MB
#P OB98/GEN NMR

erre ene a

0 1
  C     -269.691    -208.651    -114.500
  O     -268.288    -208.801    -114.642
  P     -267.760    -210.205    -115.221
  C     -266.114    -210.124    -113.196
  O     -266.322    -210.452    -114.562
  C     -264.658    -209.715    -112.982
  O     -263.801    -210.874    -112.982
  C     -264.110    -208.780    -114.054
  O     -264.498    -207.444    -113.794
  C     -262.608    -209.021    -113.926
  O     -262.057    -208.260    -112.833
  C     -262.550    -210.526    -113.636
  N     -259.121    -212.501    -116.779
  C     -258.969    -211.562    -115.777
  N     -257.715    -211.119    -115.550
  N     -259.959    -211.100    -115.057
  C     -261.159    -211.625    -115.402
  C     -261.440    -212.545    -116.385
  C     -260.328    -213.083    -117.136
  O     -260.395    -213.987    -117.966
  N     -262.781    -212.815    -116.454
  C     -263.304    -212.080    -115.495
  N     -262.364    -211.355    -114.812
  O     -267.438    -209.865    -116.749
  O     -268.711    -211.350    -115.074
  H     -261.085    -208.330    -112.852
  H     -268.172    -210.146    -117.328
  H     -258.318    -212.831    -117.287
  H     -264.353    -212.056    -115.240
  H     -261.743    -210.782    -112.936
  H     -262.063    -208.716    -114.824
  H     -256.907    -211.409    -116.082
  H     -264.449    -209.097    -115.047
  H     -257.583    -210.428    -114.822
  H     -264.582    -209.246    -111.993
  H     -266.335    -211.001    -112.579
  H     -266.792    -209.312    -112.912
  P     -265.091    -206.594    -115.021
  C     -262.753    -205.479    -115.209
  O     -264.158    -205.307    -115.198
  O     -266.457    -206.005    -114.433
  O     -265.330    -207.388    -116.262
  H     -267.132    -205.976    -115.138
  H     -262.311    -204.696    -115.831
  H     -262.468    -206.458    -115.611
  H     -262.372    -205.381    -114.193
  H     -269.908    -207.679    -114.108
  H     -270.063    -209.397    -113.830
  H     -270.160    -208.763    -115.455

 3  4  5  6  7  8  9  10  11  12  23  26  30  31 0
 6-311+G(2d,p)
 ****
 33  35  36  37  38 0
 6-311+G(2d,p)
 ****
 1  2  13  14  15  16  17  18  19  20  21  22  24  25 0
 3-21G
 ****
 27  28  29  32  34  39  40  41  42  43  44  45  46  47  48  49 0
 3-21G
 ****


