%nproc=1
%NoSave
%Mem=1900MB
#P OB98/GEN NMR

erre ene a

0 1
  C      -48.040     -82.107     233.871
  O      -49.186     -82.605     234.539
  P      -48.968     -83.217     236.008
  C      -49.446     -85.762     236.311
  O      -48.566     -84.758     235.823
  C      -50.438     -86.171     235.215
  O      -49.720     -86.574     234.027
  C      -51.328     -87.354     235.580
  O      -52.359     -86.964     236.475
  C      -51.809     -87.774     234.189
  O      -52.865     -86.906     233.754
  C      -50.548     -87.557     233.335
  N      -49.805     -91.604     230.288
  C      -50.685     -90.582     230.226
  N      -50.843     -89.558     231.083
  C      -49.947     -89.641     232.091
  C      -49.010     -90.638     232.301
  C      -48.948     -91.658     231.338
  N      -48.048     -92.704     231.405
  N      -48.290     -90.401     233.457
  C      -48.782     -89.279     233.934
  N      -49.781     -88.772     233.143
  O      -50.455     -83.296     236.598
  O      -48.052     -82.419     236.895
  H      -53.622     -87.054     234.345
  H      -50.457     -83.124     237.561
  H      -51.357     -90.592     229.373
  H      -48.452     -88.794     234.848
  H      -50.777     -87.150     232.338
  H      -52.193     -88.804     234.162
  H      -50.728     -88.159     236.031
  H      -51.054     -85.291     234.961
  H      -50.005     -85.376     237.166
  H      -48.169     -93.467     230.754
  H      -47.513     -92.812     232.260
  H      -48.856     -86.626     236.648
  P      -53.218     -88.133     237.156
  C      -55.537     -88.930     236.362
  O      -54.199     -88.631     235.981
  O      -54.203     -87.305     238.109
  O      -52.410     -89.203     237.829
  H      -54.625     -86.565     237.634
  H      -56.105     -89.206     235.466
  H      -56.001     -88.064     236.835
  H      -55.535     -89.782     237.059
  H      -48.323     -81.731     232.910
  H      -47.327     -82.895     233.750
  H      -47.605     -81.318     234.449

 3  4  5  6  7  8  9  10  11  12  22  25  29  30  31  32 0
 6-311+G(2d,p)
 ****
 33  36  37 0
 6-311+G(2d,p)
 ****
 1  2  13  14  15  16  17  18  19  20  21  23  24  26 0
 3-21G
 ****
 27  28  34  35  38  39  40  41  42  43  44  45  46  47  48 0
 3-21G
 ****


