%nproc=1
%NoSave
%Mem=1900MB
#P OB98/GEN NMR

erre ene a

0 1
  C      114.102     -68.220     343.056
  O      113.955     -69.610     342.852
  H      115.066     -67.907     342.649
  H      114.086     -67.995     344.126
  H      113.309     -67.663     342.547
  P      112.549     -70.295     343.192
  C      113.466     -71.762     345.111
  O      112.876     -71.735     343.821
  C      114.730     -72.632     345.113
  O      115.660     -72.102     344.118
  C      115.480     -72.657     346.461
  O      116.126     -73.933     346.557
  C      116.486     -71.540     346.251
  O      117.489     -71.519     347.237
  C      116.906     -71.850     344.806
  N      117.661     -70.800     344.136
  C      118.984     -71.068     343.802
  O      119.562     -72.132     344.030
  N      119.659     -70.051     343.178
  C      119.147     -68.827     342.855
  O      119.794     -67.967     342.268
  C      117.745     -68.601     343.239
  C      117.075     -69.583     343.846
  O      111.544     -70.303     342.088
  O      112.022     -69.469     344.461
  H      111.345     -68.828     344.175
  H      117.086     -71.276     348.096
  H      120.620     -70.228     342.926
  H      117.313     -67.637     343.006
  H      116.036     -69.448     344.131
  H      117.480     -72.781     344.779
  H      115.985     -70.570     346.312
  H      114.819     -72.517     347.323
  H      114.463     -73.645     344.790
  H      112.735     -72.173     345.814
  H      113.717     -70.739     345.414
  P      116.397     -74.687     347.952
  C      118.826     -75.315     347.310
  O      117.545     -75.784     347.711
  O      115.162     -75.236     348.592
  O      117.098     -73.597     348.894
  H      116.920     -73.811     349.827
  H      119.488     -76.147     347.187
  H      119.215     -74.657     348.059
  H      118.739     -74.788     346.383

 6  7  8  9  10  11  12  13  14  15  16  27  31  32  33  34  35 0
 6-311+G(2d,p)
 ****
 36  37 0
 6-311+G(2d,p)
 ****
 1  2  3  4  5  17  18  19  20  21  22  23  24  25 0
 3-21G
 ****
 26  28  29  30  38  39  40  41  42  43  44  45 0
 3-21G
 ****


