%nproc=1
%NoSave
%Mem=1900MB
#P OB98/GEN NMR

erre ene a

0 1
  C      276.506     149.270    -344.175
  O      276.753     147.897    -344.423
  P      277.826     147.506    -345.550
  C      276.159     146.568    -347.315
  O      277.087     147.586    -346.973
  C      276.087     146.402    -348.835
  O      275.065     145.414    -349.166
  C      275.735     147.693    -349.595
  O      276.429     147.661    -350.851
  C      274.246     147.539    -349.828
  O      273.755     148.366    -350.875
  C      274.170     146.033    -350.115
  N      272.815     145.498    -350.008
  C      271.934     145.771    -351.051
  O      272.235     146.430    -352.048
  N      270.655     145.309    -350.889
  C      270.158     144.697    -349.773
  O      268.971     144.411    -349.644
  C      271.130     144.436    -348.703
  C      272.393     144.841    -348.863
  O      278.038     145.936    -345.320
  O      279.111     148.261    -345.477
  H      273.778     149.287    -350.559
  H      278.863     145.774    -344.821
  H      270.005     145.488    -351.640
  H      270.774     143.933    -347.813
  H      273.129     144.677    -348.081
  H      274.569     145.821    -351.116
  H      273.703     147.798    -348.913
  H      275.986     148.608    -349.041
  H      277.051     146.003    -349.190
  H      275.169     146.842    -346.941
  H      276.451     145.629    -346.837
  P      277.778     148.528    -350.988
  C      276.654     150.342    -352.501
  O      277.325     150.034    -351.298
  O      278.330     147.995    -352.395
  O      278.735     148.337    -349.853
  H      277.629     147.909    -353.064
  H      276.004     149.522    -352.825
  H      277.391     150.545    -353.287
  H      276.044     151.237    -352.352
  H      275.772     149.366    -343.402
  H      276.146     149.735    -345.069
  H      277.413     149.746    -343.866

 3  4  5  6  7  8  9  10  11  12  13  23  28  29  30  31  32 0
 6-311+G(2d,p)
 ****
 33  34 0
 6-311+G(2d,p)
 ****
 1  2  14  15  16  17  18  19  20  21  22  24  25  26 0
 3-21G
 ****
 27  35  36  37  38  39  40  41  42  43  44  45 0
 3-21G
 ****


