%nproc=1
%NoSave
%Mem=1900MB
#P OB98/GEN NMR

erre ene a

0 1
  C     -534.654     -75.344    -382.972
  O     -535.833     -75.183    -383.741
  P     -537.138     -76.051    -383.406
  C     -538.626     -74.268    -384.504
  O     -538.290     -75.651    -384.445
  C     -539.031     -73.877    -385.930
  O     -537.891     -73.913    -386.819
  C     -540.050     -74.815    -386.557
  O     -541.345     -74.643    -386.006
  C     -539.921     -74.431    -388.029
  O     -540.669     -73.248    -388.315
  C     -538.406     -74.167    -388.145
  N     -537.695     -75.255    -388.798
  C     -538.151     -75.631    -390.064
  O     -539.156     -75.103    -390.544
  N     -537.462     -76.594    -390.750
  C     -536.486     -77.220    -390.175
  N     -535.799     -78.130    -390.928
  C     -536.072     -76.973    -388.781
  C     -536.700     -75.967    -388.161
  O     -537.561     -76.039    -381.972
  O     -536.749     -77.533    -383.864
  H     -536.952     -78.159    -383.135
  H     -540.324     -72.890    -389.153
  H     -535.300     -77.571    -388.319
  H     -536.456     -75.698    -387.139
  H     -538.230     -73.245    -388.712
  H     -540.296     -75.219    -388.695
  H     -539.736     -75.859    -386.422
  H     -539.421     -72.849    -385.903
  H     -536.098     -78.260    -391.886
  H     -537.756     -73.680    -384.197
  H     -534.854     -78.424    -390.700
  H     -539.445     -74.066    -383.805
  P     -542.536     -75.476    -386.679
  C     -543.677     -76.368    -384.530
  O     -543.760     -75.498    -385.638
  O     -541.991     -76.986    -386.648
  O     -542.886     -75.049    -388.066
  H     -542.283     -77.459    -387.455
  H     -544.373     -76.021    -383.759
  H     -542.672     -76.385    -384.107
  H     -543.964     -77.377    -384.832
  H     -533.895     -74.686    -383.341
  H     -534.315     -76.356    -383.046
  H     -534.861     -75.111    -381.948

 3  4  5  6  7  8  9  10  11  12  13  24  27  28  29  30  32 0
 6-311+G(2d,p)
 ****
 34  35 0
 6-311+G(2d,p)
 ****
 1  2  14  15  16  17  18  19  20  21  22  23  25  26 0
 3-21G
 ****
 31  33  36  37  38  39  40  41  42  43  44  45  46 0
 3-21G
 ****


