%nproc=1
%NoSave
%Mem=1900MB
#P OB98/GEN NMR

erre ene a

0 1
  C     -260.344    -811.722    -245.327
  O     -261.571    -811.152    -245.750
  H     -259.538    -811.313    -245.943
  H     -260.372    -812.802    -245.451
  H     -260.153    -811.471    -244.274
  P     -262.883    -811.549    -244.913
  C     -264.845    -810.194    -243.887
  O     -263.794    -810.225    -244.841
  C     -265.231    -808.751    -243.557
  O     -264.141    -808.116    -242.824
  C     -265.534    -807.876    -244.789
  O     -266.585    -806.960    -244.450
  C     -264.247    -807.084    -244.965
  O     -264.443    -805.878    -245.712
  C     -263.871    -806.862    -243.497
  N     -260.801    -802.875    -243.239
  C     -262.184    -802.947    -243.344
  N     -262.853    -801.767    -243.396
  N     -262.849    -804.062    -243.412
  C     -262.058    -805.171    -243.311
  C     -260.680    -805.240    -243.205
  C     -259.959    -803.975    -243.178
  O     -258.735    -803.854    -243.102
  N     -260.259    -806.541    -243.167
  C     -261.360    -807.253    -243.257
  N     -262.479    -806.468    -243.345
  O     -262.317    -811.700    -243.423
  O     -263.587    -812.785    -245.370
  H     -264.668    -806.136    -246.633
  H     -262.083    -812.628    -243.242
  H     -260.342    -801.983    -243.212
  H     -261.417    -808.341    -243.254
  H     -264.478    -806.086    -243.023
  H     -263.492    -807.688    -245.476
  H     -262.410    -800.863    -243.312
  H     -265.814    -808.443    -245.689
  H     -263.866    -801.799    -243.439
  H     -266.104    -808.769    -242.881
  H     -264.504    -810.686    -242.970
  H     -265.718    -810.740    -244.283
  P     -268.077    -807.316    -244.915
  C     -270.362    -807.002    -243.704
  O     -269.097    -806.441    -244.034
  O     -268.289    -808.801    -244.349
  O     -268.286    -807.254    -246.399
  H     -268.944    -809.285    -244.901
  H     -270.921    -806.302    -243.119
  H     -270.218    -807.901    -243.142
  H     -270.899    -807.225    -244.602

 6  7  8  9  10  11  12  13  14  15  26  29  33  34 0
 6-311+G(2d,p)
 ****
 36  38  39  40  41 0
 6-311+G(2d,p)
 ****
 1  2  3  4  5  16  17  18  19  20  21  22  23  24  25 0
 3-21G
 ****
 27  28  30  31  32  35  37  42  43  44  45  46  47 0
 3-21G
 ****
 48  49 0
 3-21G
 ****


