%nproc=1
%NoSave
%Mem=1900MB
#P OB98/GEN NMR

erre ene a

0 1
  C      125.243     373.294     161.817
  O      124.963     373.288     160.433
  H      126.224     372.843     161.978
  H      124.495     372.701     162.349
  H      125.259     374.312     162.215
  P      123.724     374.149     159.889
  C      121.170     374.110     160.244
  O      122.433     373.645     160.701
  C      120.173     372.954     160.136
  O      120.650     372.008     159.136
  C      119.976     372.176     161.448
  O      118.628     371.682     161.456
  C      120.950     371.027     161.275
  O      120.672     369.968     162.163
  C      120.778     370.726     159.783
  N      121.883     369.939     159.237
  C      121.547     368.760     158.588
  O      120.387     368.353     158.487
  N      122.587     368.028     158.091
  C      123.912     368.328     158.231
  O      124.809     367.617     157.789
  C      124.212     369.569     158.967
  C      123.200     370.310     159.423
  O      123.558     374.178     158.406
  O      123.965     375.613     160.491
  H      121.326     369.245     162.046
  H      123.596     376.287     159.889
  H      122.357     367.175     157.603
  H      125.256     369.827     159.101
  H      123.391     371.224     159.973
  H      119.847     370.169     159.608
  H      121.974     371.361     161.476
  H      120.172     372.776     162.339
  H      119.216     373.350     159.767
  H      121.315     374.567     159.257
  H      120.788     374.868     160.936
  P      117.427     372.499     162.144
  C      116.494     372.905     164.513
  O      117.573     372.387     163.740
  O      116.069     372.140     161.632
  O      117.762     374.038     161.847
  H      116.930     374.553     161.820
  H      116.706     372.774     165.554
  H      115.594     372.383     164.264
  H      116.372     373.947     164.302

 6  7  8  9  10  11  12  13  14  15  16  26  31  32  33  34  35 0
 6-311+G(2d,p)
 ****
 36  37 0
 6-311+G(2d,p)
 ****
 1  2  3  4  5  17  18  19  20  21  22  23  24  25 0
 3-21G
 ****
 27  28  29  30  38  39  40  41  42  43  44  45 0
 3-21G
 ****


