%nproc=1
%NoSave
%Mem=1900MB
#P OB98/GEN NMR

erre ene a

0 1
  C      173.368    -425.856    -150.408
  O      174.414    -426.781    -150.224
  H      173.048    -425.899    -151.454
  H      173.711    -424.841    -150.196
  H      172.515    -426.104    -149.771
  P      175.110    -426.904    -148.782
  C      174.249    -429.217    -148.073
  O      175.363    -428.480    -148.565
  C      174.227    -430.630    -148.656
  O      173.607    -430.604    -149.969
  C      175.621    -431.258    -148.817
  O      175.617    -432.591    -148.304
  C      175.829    -431.290    -150.322
  O      176.757    -432.286    -150.737
  C      174.388    -431.481    -150.804
  N      174.239    -431.177    -152.225
  C      175.109    -431.841    -153.092
  O      175.939    -432.635    -152.651
  N      175.058    -431.549    -154.431
  C      174.242    -430.640    -154.860
  N      174.262    -430.377    -156.195
  C      173.324    -429.891    -153.973
  C      173.372    -430.211    -152.678
  O      174.378    -426.223    -147.675
  O      176.592    -426.338    -148.994
  H      177.641    -432.066    -150.366
  H      176.952    -426.051    -148.124
  H      172.665    -429.140    -154.380
  H      172.733    -429.718    -151.951
  H      174.048    -432.508    -150.630
  H      176.206    -430.315    -150.661
  H      176.405    -430.688    -148.316
  H      173.584    -431.254    -148.025
  H      174.912    -430.906    -156.764
  H      173.331    -428.679    -148.338
  H      173.688    -429.672    -156.637
  H      174.330    -429.279    -146.986
  P      177.049    -433.218    -147.941
  C      176.623    -433.700    -145.430
  O      176.851    -434.240    -146.721
  O      177.838    -431.984    -147.290
  O      177.775    -433.769    -149.126
  H      178.545    -431.686    -147.890
  H      176.511    -434.497    -144.725
  H      175.732    -433.108    -145.443
  H      177.454    -433.088    -145.148

 6  7  8  9  10  11  12  13  14  15  16  26  30  31  32  33  35 0
 6-311+G(2d,p)
 ****
 37  38 0
 6-311+G(2d,p)
 ****
 1  2  3  4  5  17  18  19  20  21  22  23  24  25 0
 3-21G
 ****
 27  28  29  34  36  39  40  41  42  43  44  45  46 0
 3-21G
 ****


