%nproc=1
%NoSave
%Mem=1900MB
#P OB98/GEN NMR

erre ene a

0 1
  C      302.795      53.469      56.001
  O      302.593      52.493      54.996
  H      301.914      54.116      56.083
  H      302.952      52.967      56.961
  H      303.678      54.074      55.767
  P      302.304      53.031      53.514
  C      303.427      51.053      52.235
  O      302.216      51.714      52.598
  C      303.122      49.607      51.870
  O      302.883      48.831      53.064
  C      301.873      49.438      51.001
  O      302.122      49.677      49.627
  C      301.547      47.973      51.257
  O      302.439      47.137      50.503
  C      301.846      47.850      52.764
  N      297.140      46.279      54.042
  C      298.066      45.764      53.200
  N      299.306      46.234      52.929
  C      299.557      47.339      53.650
  C      298.711      47.976      54.540
  C      297.447      47.399      54.730
  N      296.481      47.942      55.561
  N      299.319      49.105      55.064
  C      300.508      49.143      54.503
  N      300.692      48.113      53.610
  O      303.699      53.683      53.063
  O      301.148      53.961      53.366
  H      302.261      47.307      49.558
  H      303.575      54.240      52.267
  H      297.777      44.857      52.669
  H      301.271      49.891      54.690
  H      302.236      46.868      53.039
  H      300.527      47.712      50.966
  H      301.046      50.056      51.371
  H      304.003      49.182      51.367
  H      304.121      51.085      53.084
  H      295.556      47.545      55.517
  H      296.651      48.854      55.965
  H      303.878      51.576      51.380
  P      301.486      50.994      48.968
  C      303.221      50.697      47.063
  O      301.871      50.971      47.416
  O      302.401      52.170      49.562
  O      300.033      51.202      49.280
  H      301.881      52.990      49.685
  H      303.322      50.716      45.998
  H      303.497      49.731      47.430
  H      303.860      51.438      47.495

 6  7  8  9  10  11  12  13  14  15  25  28  32  33  34  35 0
 6-311+G(2d,p)
 ****
 36  39  40 0
 6-311+G(2d,p)
 ****
 1  2  3  4  5  16  17  18  19  20  21  22  23  24 0
 3-21G
 ****
 26  27  29  30  31  37  38  41  42  43  44  45  46  47 0
 3-21G
 ****
 48 0
 3-21G
 ****


