%nproc=1
%NoSave
%Mem=1900MB
#P OB98/GEN NMR

erre ene a

0 1
  C     -118.293    -187.750    -165.998
  O     -119.171    -187.309    -164.983
  H     -118.101    -186.918    -166.682
  H     -118.745    -188.570    -166.560
  H     -117.345    -188.074    -165.561
  P     -119.631    -188.399    -163.899
  C     -121.355    -190.341    -163.858
  O     -120.675    -189.368    -164.637
  C     -122.621    -190.787    -164.584
  O     -123.641    -189.768    -164.459
  C     -122.438    -190.996    -166.080
  O     -121.815    -192.234    -166.377
  C     -123.881    -190.933    -166.558
  O     -124.539    -192.202    -166.413
  C     -124.498    -189.877    -165.616
  N     -124.689    -188.591    -166.279
  C     -125.785    -188.507    -167.133
  O     -126.557    -189.446    -167.329
  N     -125.946    -187.318    -167.786
  C     -125.114    -186.238    -167.701
  O     -125.273    -185.225    -168.369
  C     -123.978    -186.380    -166.774
  C     -123.813    -187.535    -166.122
  O     -120.544    -187.548    -162.895
  O     -118.517    -189.098    -163.194
  H     -120.046    -187.350    -162.081
  H     -125.424    -192.095    -166.815
  H     -126.729    -187.241    -168.417
  H     -123.300    -185.539    -166.677
  H     -122.972    -187.667    -165.448
  H     -125.476    -190.216    -165.250
  H     -123.942    -190.663    -167.614
  H     -121.885    -190.156    -166.516
  H     -122.992    -191.704    -164.105
  H     -121.631    -189.909    -162.892
  H     -120.686    -191.191    -163.685
  P     -120.659    -192.262    -167.490
  C     -120.668    -191.969    -170.103
  O     -121.399    -192.218    -168.913
  O     -120.145    -193.770    -167.361
  O     -119.613    -191.218    -167.295
  H     -120.858    -194.400    -167.164
  H     -121.335    -191.980    -170.940
  H     -119.924    -192.728    -170.230
  H     -120.194    -191.012    -170.037

 6  7  8  9  10  11  12  13  14  15  16  27  31  32  33  34  35 0
 6-311+G(2d,p)
 ****
 36  37 0
 6-311+G(2d,p)
 ****
 1  2  3  4  5  17  18  19  20  21  22  23  24  25 0
 3-21G
 ****
 26  28  29  30  38  39  40  41  42  43  44  45 0
 3-21G
 ****


