%nproc=1
%NoSave
%Mem=1900MB
#P OB98/GEN NMR

erre ene a

0 1
  C     -630.933    -443.293    -158.855
  O     -631.876    -442.237    -158.844
  P     -633.410    -442.515    -159.249
  C     -633.634    -440.197    -160.367
  O     -634.115    -441.075    -159.345
  C     -634.707    -439.180    -160.725
  O     -635.883    -439.824    -161.277
  C     -635.237    -438.381    -159.540
  O     -634.342    -437.507    -158.891
  C     -636.498    -437.774    -160.120
  O     -636.202    -436.609    -160.901
  C     -636.999    -438.922    -161.042
  N     -638.148    -439.617    -160.467
  C     -639.387    -439.269    -160.965
  O     -639.556    -438.420    -161.849
  N     -640.467    -439.908    -160.402
  C     -640.422    -440.800    -159.377
  O     -641.435    -441.307    -158.897
  C     -639.075    -441.127    -158.888
  C     -638.014    -440.537    -159.430
  O     -634.128    -443.508    -158.395
  O     -633.311    -442.941    -160.790
  H     -635.593    -436.878    -161.610
  H     -632.911    -442.267    -161.387
  H     -641.381    -439.651    -160.754
  H     -639.005    -441.854    -158.074
  H     -637.002    -440.762    -159.082
  H     -637.290    -438.528    -162.023
  H     -637.207    -437.471    -159.348
  H     -635.553    -439.099    -158.768
  H     -634.311    -438.517    -161.503
  H     -633.394    -440.786    -161.245
  H     -632.713    -439.710    -160.033
  P     -633.403    -437.963    -157.664
  C     -633.240    -435.469    -156.969
  O     -632.563    -436.694    -157.185
  O     -632.669    -439.259    -157.815
  O     -634.472    -438.107    -156.479
  H     -634.171    -438.810    -155.864
  H     -632.511    -434.702    -156.690
  H     -633.954    -435.576    -156.143
  H     -633.741    -435.137    -157.879
  H     -629.975    -442.919    -158.560
  H     -630.867    -443.702    -159.841
  H     -631.244    -444.056    -158.172

 3  4  5  6  7  8  9  10  11  12  13  23  28  29  30  31  32 0
 6-311+G(2d,p)
 ****
 33  34 0
 6-311+G(2d,p)
 ****
 1  2  14  15  16  17  18  19  20  21  22  24  25  26  27 0
 3-21G
 ****
 35  36  37  38  39  40  41  42  43  44  45 0
 3-21G
 ****


