%nproc=1
%NoSave
%Mem=1900MB
#P OB98/GEN NMR

erre ene a

0 1
  C      802.241     312.987     144.841
  O      802.045     311.886     143.949
  P      802.543     312.093     142.431
  C      800.271     312.766     141.351
  O      801.292     311.782     141.475
  C      799.401     312.492     140.124
  O      800.175     312.573     138.915
  C      798.772     311.105     140.104
  O      797.620     311.039     140.927
  C      798.392     310.979     138.631
  O      797.136     311.638     138.392
  C      799.534     311.726     137.928
  N      801.034     309.214     133.786
  C      799.936     310.031     133.978
  N      799.140     310.231     132.905
  N      799.646     310.606     135.117
  C      800.549     310.341     136.091
  C      801.672     309.551     136.029
  C      801.963     308.896     134.769
  O      802.903     308.141     134.552
  N      802.346     309.532     137.219
  C      801.651     310.333     137.999
  N      800.538     310.837     137.366
  O      803.504     310.837     142.196
  O      803.240     313.388     142.192
  H      797.200     312.530     138.793
  H      804.171     311.050     141.517
  H      801.206     308.796     132.887
  H      801.902     310.584     139.020
  H      799.168     312.377     137.127
  H      798.269     309.937     138.317
  H      799.344     309.879     131.983
  H      799.512     310.335     140.361
  H      798.352     310.855     133.017
  H      798.617     313.258     140.085
  H      800.718     313.757     141.261
  H      799.667     312.771     142.260
  P      797.729     310.151     142.262
  C      796.153     308.299     141.356
  O      796.368     309.305     142.322
  O      797.566     311.234     143.428
  O      798.994     309.373     142.388
  H      798.038     310.937     144.230
  H      797.060     307.709     141.188
  H      795.835     308.753     140.415
  H      795.361     307.631     141.711
  H      801.872     312.729     145.812
  H      801.712     313.842     144.474
  H      803.285     313.213     144.904

 3  4  5  6  7  8  9  10  11  12  23  26  30  31  33  0
 6-311+G(2d,p)
 ****
 35  36  37  38 0
 6-311+G(2d,p)
 ****
 1  2  13  14  15  16  17  18  19  20  21  22  24  25  27  28  29 0
 3-21G
 ****
 32  34  39  40  41  42  43  44  45  46  47  48  49 0
 3-21G
 ****


