%nproc=1
%NoSave
%Mem=1900MB
#P OB98/GEN NMR

erre ene a

0 1
  C      528.943    -226.624    -179.019
  O      527.646    -226.503    -179.577
  H      528.846    -226.914    -177.968
  H      529.467    -225.670    -179.077
  H      529.509    -227.398    -179.547
  P      527.570    -226.102    -181.127
  C      526.946    -223.596    -180.768
  O      526.537    -224.877    -181.219
  C      525.994    -223.079    -179.679
  O      526.377    -223.679    -178.406
  C      526.039    -221.555    -179.481
  O      524.744    -221.135    -179.009
  C      527.056    -221.412    -178.366
  O      527.018    -220.127    -177.802
  C      526.634    -222.588    -177.490
  N      527.771    -222.755    -172.498
  C      526.655    -222.364    -173.157
  N      526.423    -222.365    -174.487
  C      527.484    -222.840    -175.157
  C      528.684    -223.284    -174.629
  C      528.816    -223.227    -173.229
  N      529.951    -223.615    -172.558
  N      529.537    -223.700    -175.637
  C      528.866    -223.511    -176.752
  N      527.624    -222.988    -176.512
  O      526.775    -227.325    -181.784
  O      528.887    -225.864    -181.790
  H      527.830    -219.948    -177.279
  H      527.407    -227.972    -182.153
  H      525.845    -222.005    -172.532
  H      529.226    -223.727    -177.751
  H      525.700    -222.380    -176.951
  H      528.073    -221.557    -178.747
  H      526.286    -221.008    -180.396
  H      524.979    -223.425    -179.901
  H      526.939    -222.909    -181.622
  H      527.960    -223.655    -180.366
  H      529.970    -223.528    -171.554
  H      530.746    -223.950    -173.090
  P      523.696    -220.499    -180.055
  C      522.453    -218.852    -178.443
  O      522.395    -220.017    -179.248
  O      523.154    -221.799    -180.820
  O      524.268    -219.517    -181.025
  H      522.881    -221.564    -181.724
  H      521.500    -218.687    -177.985
  H      522.707    -218.010    -179.052
  H      523.196    -218.980    -177.684

 6  7  8  9  10  11  12  13  14  15  25  28  32  33  34  35 0
 6-311+G(2d,p)
 ****
 36  37  40 0
 6-311+G(2d,p)
 ****
 1  2  3  4  5  16  17  18  19  20  21  22  23  24 0
 3-21G
 ****
 26  27  29  30  31  38  39 41  42  43  44  45  46  47  48 0
 3-21G
 ****


