%nproc=1
%NoSave
%Mem=1900MB
#P OB98/GEN NMR

erre ene a

0 1
  C     -178.371     531.619    1041.461
  O     -179.613     531.004    1041.725
  H     -178.486     532.712    1041.555
  H     -178.029     531.400    1040.440
  H     -177.614     531.292    1042.182
  P     -179.763     529.440    1041.394
  C     -179.387     528.969    1043.914
  O     -180.232     528.753    1042.767
  C     -179.977     528.327    1045.169
  O     -181.351     528.761    1045.351
  C     -180.060     526.793    1045.104
  O     -178.787     526.166    1045.160
  C     -181.105     526.485    1046.162
  O     -180.576     526.381    1047.483
  C     -182.030     527.719    1046.071
  N     -183.331     527.388    1045.474
  C     -184.000     526.297    1046.006
  O     -183.553     525.620    1046.933
  N     -185.206     525.991    1045.427
  C     -185.761     526.621    1044.349
  O     -186.821     526.272    1043.846
  C     -184.983     527.760    1043.798
  C     -183.824     528.086    1044.368
  O     -178.567     528.791    1040.760
  O     -181.084     529.372    1040.496
  H     -180.020     527.173    1047.634
  H     -181.138     528.519    1040.009
  H     -185.718     525.209    1045.817
  H     -185.392     528.279    1042.942
  H     -183.244     528.913    1043.981
  H     -182.229     528.120    1047.078
  H     -181.614     525.537    1045.955
  H     -180.495     526.520    1044.135
  H     -179.402     528.661    1046.043
  H     -179.294     530.056    1044.062
  H     -178.393     528.562    1043.714
  P     -178.586     524.621    1044.782
  C     -178.308     525.041    1042.219
  O     -177.698     524.562    1043.428
  O     -179.769     523.728    1044.913
  O     -177.506     524.169    1045.898
  H     -177.689     523.239    1046.137
  H     -177.616     524.945    1041.408
  H     -178.577     526.070    1042.339
  H     -179.185     524.465    1042.010

 6  7  8  9  10  11  12  13  14  15  16  26  31  32  33  34  35 0
 6-311+G(2d,p)
 ****
 36  37 0
 6-311+G(2d,p)
 ****
 1  2  3  4  5  17  18  19  20  21  22  23  24  25 0
 3-21G
 ****
 27  28  29  30  38  39  40  41  42  43  44  45 0
 3-21G
 ****


