%nproc=1
%NoSave
%Mem=1900MB
#P OB98/GEN NMR

erre ene a

0 1
  C       44.914     204.764      69.287
  O       45.681     205.877      68.811
  P       44.900     207.226      68.439
  C       46.388     208.351      70.250
  O       45.115     208.288      69.624
  C       46.754     209.806      70.574
  O       47.038     210.560      69.376
  C       45.649     210.573      71.281
  O       45.640     210.308      72.677
  C       46.072     212.009      71.021
  O       47.118     212.388      71.940
  C       46.627     211.931      69.595
  N       43.197     215.438      68.120
  C       43.975     215.344      69.221
  N       44.850     214.371      69.552
  C       44.893     213.428      68.596
  C       44.160     213.390      67.421
  C       43.273     214.454      67.193
  N       42.485     214.547      66.066
  N       44.464     212.259      66.693
  C       45.378     211.637      67.408
  N       45.664     212.300      68.574
  O       43.359     206.810      68.600
  O       45.186     207.733      67.067
  H       46.828     212.109      72.829
  H       42.820     207.284      67.939
  H       43.879     216.159      69.936
  H       45.858     210.706      67.124
  H       47.509     212.567      69.449
  H       45.255     212.722      71.162
  H       44.673     210.376      70.819
  H       47.656     209.797      71.200
  H       47.151     207.907      69.610
  H       41.898     215.357      65.960
  H       42.558     213.827      65.364
  H       46.365     207.747      71.164
  P       44.317     209.646      73.292
  C       45.316     207.467      74.287
  O       44.560     208.064      73.254
  O       43.222     209.902      72.147
  O       43.895     210.212      74.608
  H       42.336     209.988      72.549
  H       45.132     206.392      74.280
  H       45.036     207.868      75.267
  H       46.384     207.644      74.115
  H       45.568     203.942      69.492
  H       44.203     204.476      68.541
  H       44.399     205.043      70.183

 3  4  5  6  7  8  9  10  11  12  22  25  29  30  31  32 0
 6-311+G(2d,p)
 ****
 33  36  37 0
 6-311+G(2d,p)
 ****
 1  2  13  14  15  16  17  18  19  20  21  23  24  26 0
 3-21G
 ****
 27  28  34  35  38  39  40  41  42  43  44  45  46  47  48 0
 3-21G
 ****


