%nproc=1
%NoSave
%Mem=1900MB
#P OB98/GEN NMR

erre ene a

0 1
  C     -216.310      45.236      -2.867
  O     -217.082      46.380      -3.223
  P     -216.802      47.742      -2.423
  C     -214.697      48.619      -3.722
  O     -216.075      48.758      -3.427
  C     -214.155      49.870      -4.437
  O     -214.532      49.799      -5.836
  C     -214.711      51.199      -3.934
  O     -213.841      52.250      -4.363
  C     -216.021      51.291      -4.688
  O     -216.527      52.622      -4.705
  C     -215.652      50.695      -6.066
  N     -216.764      49.964      -6.712
  C     -217.796      50.700      -7.289
  O     -217.843      51.930      -7.292
  N     -218.820      49.976      -7.839
  C     -218.891      48.618      -7.908
  O     -219.872      48.019      -8.336
  C     -217.713      47.893      -7.414
  C     -216.726      48.584      -6.839
  O     -215.660      47.335      -1.381
  O     -218.009      48.301      -1.748
  H     -215.862      53.169      -5.184
  H     -216.036      47.257      -0.483
  H     -219.606      50.498      -8.199
  H     -217.705      46.815      -7.513
  H     -215.856      48.060      -6.449
  H     -215.332      51.481      -6.764
  H     -216.771      50.663      -4.198
  H     -214.855      51.253      -2.852
  H     -213.059      49.866      -4.389
  H     -214.537      47.729      -4.338
  H     -214.137      48.460      -2.792
  P     -212.717      52.761      -3.340
  C     -210.386      52.287      -4.319
  O     -211.460      53.204      -4.235
  O     -212.408      51.852      -2.198
  O     -213.301      54.169      -2.839
  H     -212.864      54.428      -2.007
  H     -209.885      52.418      -5.281
  H     -210.734      51.253      -4.235
  H     -209.674      52.495      -3.514
  H     -216.600      44.406      -3.477
  H     -216.478      44.998      -1.837
  H     -215.272      45.445      -3.020

 3  4  5  6  7  8  9  10  11  12  13  23  28  29  30  31  32 0
 6-311+G(2d,p)
 ****
 33  34 0
 6-311+G(2d,p)
 ****
 1  2  14  15  16  17  18  19  20  21  22  24  25  26  27 0
 3-21G
 ****
 35  36  37  38  39  40  41  42  43  44  45 0
 3-21G
 ****


