%nproc=1
%NoSave
%Mem=1900MB
#P OB98/GEN NMR

erre ene a

0 1
  C     1021.497    -658.611     292.723
  O     1022.001    -657.343     293.108
  H     1020.408    -658.559     292.601
  H     1021.935    -658.898     291.771
  H     1021.750    -659.359     293.479
  P     1021.476    -656.742     294.502
  C     1023.588    -657.527     295.789
  O     1022.177    -657.619     295.646
  C     1023.912    -657.101     297.223
  O     1023.549    -658.148     298.155
  C     1025.400    -656.859     297.484
  O     1025.804    -655.543     297.046
  C     1025.464    -656.959     298.990
  O     1024.937    -655.760     299.600
  C     1024.516    -658.148     299.248
  N     1024.816    -662.611     301.710
  C     1024.059    -661.528     301.938
  N     1024.055    -660.374     301.219
  C     1024.919    -660.410     300.224
  C     1025.792    -661.449     299.894
  C     1025.711    -662.604     300.686
  N     1026.495    -663.715     300.494
  N     1026.577    -661.099     298.810
  C     1026.181    -659.901     298.483
  N     1025.197    -659.427     299.303
  O     1019.951    -657.219     294.568
  O     1021.623    -655.264     294.666
  H     1025.603    -655.057     299.440
  H     1019.443    -656.648     295.185
  H     1023.364    -661.586     302.754
  H     1026.570    -659.323     297.640
  H     1023.945    -658.040     300.179
  H     1026.472    -657.099     299.378
  H     1026.026    -657.630     297.031
  H     1023.324    -656.209     297.478
  H     1023.970    -656.768     295.102
  H     1026.500    -664.408     301.232
  H     1027.260    -663.653     299.829
  H     1024.045    -658.495     295.578
  P     1027.387    -655.268     296.906
  C     1027.381    -655.856     294.360
  O     1027.874    -656.149     295.665
  O     1027.989    -656.009     298.167
  O     1027.748    -653.812     296.858
  H     1028.839    -655.586     298.461
  H     1027.808    -656.539     293.656
  H     1027.649    -654.855     294.094
  H     1026.316    -655.954     294.351

 6  7  8  9  10  11  12  13  14  15  25  28  32  33  34  35 0
 6-311+G(2d,p)
 ****
 36  39  40 0
 6-311+G(2d,p)
 ****
 1  2  3  4  5  16  17  18  19  20  21  22  23  24 0
 3-21G
 ****
 26  27  29  30  31  37  38  41  42  43  44  45  46  47 0
 3-21G
 ****
 48 0
 3-21G
 ****


