%nproc=1
%NoSave
%Mem=1900MB
#P OB98/GEN NMR

erre ene a

0 1
  C      222.103     705.099     276.028
  O      220.701     705.145     275.853
  H      222.564     705.833     275.366
  H      222.485     704.106     275.774
  H      222.373     705.342     277.064
  P      219.768     704.255     276.808
  C      218.165     702.347     276.155
  O      219.477     702.884     276.026
  C      217.781     701.597     274.874
  O      217.763     702.508     273.752
  C      218.763     700.483     274.487
  O      218.573     699.350     275.320
  C      218.396     700.292     273.026
  O      217.204     699.501     272.891
  C      218.138     701.748     272.574
  N      219.293     702.348     271.903
  C      219.693     701.733     270.712
  O      219.144     700.742     270.245
  N      220.801     702.283     270.113
  C      221.569     703.293     270.618
  O      222.666     703.604     270.161
  C      221.049     703.948     271.825
  C      219.953     703.455     272.408
  O      218.560     704.941     277.354
  O      220.763     703.793     277.975
  H      220.614     704.346     278.765
  H      217.360     698.674     273.387
  H      221.138     701.813     269.283
  H      221.592     704.800     272.218
  H      219.575     703.901     273.322
  H      217.278     701.790     271.888
  H      219.183     699.786     272.464
  H      219.792     700.856     274.560
  H      216.768     701.195     275.000
  H      217.462     703.161     276.320
  H      218.143     701.673     277.019
  P      219.773     698.327     275.590
  C      221.042     696.504     274.313
  O      220.129     697.576     274.216
  O      219.572     697.409     276.756
  O      221.058     699.275     275.828
  H      221.476     699.031     276.681
  H      221.202     696.083     273.342
  H      220.645     695.755     274.966
  H      221.971     696.861     274.705

 6  7  8  9  10  11  12  13  14  15  16  27  31  32  33  34  35 0
 6-311+G(2d,p)
 ****
 36  37 0
 6-311+G(2d,p)
 ****
 1  2  3  4  5  17  18  19  20  21  22  23  24  25 0
 3-21G
 ****
 26  28  29  30  38  39  40  41  42  43  44  45 0
 3-21G
 ****


