%nproc=1
%NoSave
%Mem=1900MB
#P OB98/GEN NMR

erre ene a

0 1
  C     -157.854     117.670      11.184
  O     -158.145     116.739      10.159
  H     -158.697     118.358      11.280
  H     -156.955     118.242      10.935
  H     -157.714     117.147      12.134
  P     -157.010     115.654       9.833
  C     -154.887     115.675       8.373
  O     -155.966     116.439       8.897
  C     -154.459     116.219       7.009
  O     -155.528     115.977       6.060
  C     -154.176     117.723       7.017
  O     -153.064     117.996       6.166
  C     -155.435     118.326       6.419
  O     -155.196     119.592       5.810
  C     -155.871     117.231       5.447
  N     -159.514     119.835       3.004
  C     -158.168     119.925       2.978
  N     -157.267     119.177       3.652
  C     -157.886     118.227       4.375
  C     -159.247     118.015       4.503
  C     -160.084     118.879       3.776
  N     -161.457     118.811       3.816
  N     -159.494     116.971       5.373
  C     -158.301     116.551       5.751
  N     -157.299     117.292       5.187
  O     -157.496     114.350       9.295
  O     -156.229     115.572      11.227
  H     -156.016     120.124       5.873
  H     -156.078     116.458      11.605
  H     -157.758     120.703       2.340
  H     -158.112     115.732       6.438
  H     -155.360     117.299       4.479
  H     -156.185     118.467       7.206
  H     -153.978     118.107       8.018
  H     -153.589     115.652       6.661
  H     -155.183     114.625       8.271
  H     -161.983     119.461       3.252
  H     -161.901     118.094       4.372
  H     -154.056     115.734       9.083
  P     -151.600     118.056       6.817
  C     -150.372     119.817       8.248
  O     -151.252     119.586       7.153
  O     -150.536     117.298       6.100
  O     -151.849     117.438       8.278
  H     -151.075     116.897       8.528
  H     -150.221     120.869       8.368
  H     -149.433     119.341       8.057
  H     -150.801     119.414       9.142

 6  7  8  9  10  11  12  13  14  15  25  28  32  33  34  35 0
 6-311+G(2d,p)
 ****
 36  39  40 0
 6-311+G(2d,p)
 ****
 1  2  3  4  5  16  17  18  19  20  21  22  23  24 0
 3-21G
 ****
 26  27  29  30  31  37  38  41  42  43  44  45  46  47 0
 3-21G
 ****
 48 0
 3-21G
 ****


