%nproc=1
%NoSave
%Mem=1900MB
#P OB98/GEN NMR

erre ene a

0 1
  C      127.611    -141.864     266.329
  O      126.725    -142.353     267.316
  H      127.778    -140.792     266.465
  H      128.566    -142.386     266.425
  H      127.202    -142.054     265.332
  P      125.294    -141.633     267.409
  C      124.025    -143.664     268.397
  O      124.504    -142.345     268.611
  C      124.310    -144.531     269.617
  O      125.700    -144.915     269.643
  C      124.057    -143.850     270.957
  O      122.676    -143.828     271.289
  C      124.843    -144.762     271.888
  O      124.064    -145.934     272.190
  C      126.059    -145.144     271.031
  N      130.791    -145.314     273.019
  C      129.846    -146.269     272.860
  N      128.609    -146.150     272.335
  C      128.380    -144.889     271.934
  C      129.247    -143.811     272.029
  C      130.502    -144.058     272.610
  N      131.454    -143.075     272.782
  N      128.674    -142.676     271.500
  C      127.482    -143.056     271.090
  N      127.255    -144.385     271.336
  O      124.527    -142.155     266.102
  O      125.332    -140.142     267.460
  H      123.274    -145.628     272.674
  H      123.963    -141.437     265.758
  H      130.121    -147.265     273.197
  H      126.757    -142.410     270.609
  H      126.298    -146.209     271.125
  H      125.099    -144.287     272.839
  H      124.493    -142.845     270.981
  H      123.712    -145.447     269.528
  H      124.527    -144.098     267.526
  H      132.392    -143.349     273.018
  H      131.230    -142.138     272.464
  H      122.948    -143.623     268.203
  P      122.173    -142.673     272.287
  C      119.834    -143.697     271.825
  O      120.722    -143.140     272.788
  O      121.847    -141.457     271.297
  O      123.146    -142.283     273.347
  H      121.919    -140.610     271.779
  H      118.912    -143.960     272.300
  H      120.276    -144.572     271.396
  H      119.646    -142.978     271.055

 6  7  8  9  10  11  12  13  14  15  25  28  32  33  34  35 0
 6-311+G(2d,p)
 ****
 36  39  40 0
 6-311+G(2d,p)
 ****
 1  2  3  4  5  16  17  18  19  20  21  22  23  24 0
 3-21G
 ****
 26  27  29  30  31  37  38  41  42  43  44  45  46  47  48 0
 3-21G
 ****


