%nproc=1
%NoSave
%Mem=1900MB
#P OB98/GEN NMR

erre ene a

0 1
  C     -634.779    1000.549    -147.079
  O     -634.302    1000.428    -148.415
  P     -633.966    1001.721    -149.279
  C     -633.698    1000.172    -151.312
  O     -634.319    1001.344    -150.798
  C     -634.534     999.603    -152.475
  O     -634.794    1000.630    -153.488
  C     -633.833     998.502    -153.252
  O     -633.574     997.272    -152.573
  C     -634.690     998.430    -154.516
  O     -635.868     997.668    -154.298
  C     -635.030     999.936    -154.740
  N     -634.248    1000.517    -155.836
  C     -634.517     999.993    -157.092
  O     -635.348     999.105    -157.312
  N     -633.767    1000.508    -158.138
  C     -632.743    1001.437    -158.020
  O     -632.091    1001.821    -158.955
  C     -632.523    1001.941    -156.645
  C     -633.255    1001.474    -155.621
  O     -632.589    1002.318    -149.090
  O     -635.156    1002.727    -148.905
  H     -636.415     997.727    -155.102
  H     -636.050    1002.404    -149.112
  H     -633.935    1000.120    -159.034
  H     -631.750    1002.691    -156.504
  H     -633.109    1001.831    -154.619
  H     -636.099    1000.044    -154.955
  H     -634.154     997.965    -155.345
  H     -632.819     998.857    -153.551
  H     -635.500     999.286    -152.084
  H     -633.655     999.410    -150.520
  H     -632.676    1000.416    -151.628
  P     -632.420     996.266    -152.982
  C     -632.076     995.139    -150.642
  O     -632.502     994.984    -151.994
  O     -631.073     996.871    -153.235
  O     -632.986     995.646    -154.344
  H     -632.242     995.400    -154.932
  H     -632.145     994.177    -150.161
  H     -632.758     995.875    -150.140
  H     -631.038     995.484    -150.594
  H     -634.945     999.574    -146.670
  H     -635.697    1001.098    -147.076
  H     -634.053    1001.065    -146.486

 3  4  5  6  7  8  9  10  11  12  13  23  28  29  30  31  32 0
 6-311+G(2d,p)
 ****
 33  34 0
 6-311+G(2d,p)
 ****
 1  2  14  15  16  17  18  19  20  21  22  24  25  26  27 0
 3-21G
 ****
 35  36  37  38  39  40  41  42  43  44  45 0
 3-21G
 ****


