%nproc=1
%NoSave
%Mem=1900MB
#P OB98/GEN NMR

erre ene a

0 1
  C      -57.450     -55.625    -324.155
  O      -56.067     -55.955    -324.069
  P      -55.657     -57.190    -323.126
  C      -54.155     -55.642    -321.681
  O      -55.257     -56.542    -321.712
  C      -54.444     -54.474    -320.739
  O      -55.624     -53.765    -321.171
  C      -54.714     -54.876    -319.295
  O      -53.517     -55.100    -318.567
  C      -55.427     -53.640    -318.777
  O      -54.464     -52.612    -318.476
  C      -56.277     -53.227    -319.989
  N      -60.818     -52.640    -317.715
  C      -59.627     -52.045    -317.511
  N      -58.456     -52.261    -318.150
  C      -58.589     -53.243    -319.066
  C      -59.735     -53.965    -319.356
  C      -60.900     -53.626    -318.645
  N      -62.126     -54.216    -318.875
  N      -59.487     -54.884    -320.350
  C      -58.220     -54.711    -320.662
  N      -57.637     -53.724    -319.916
  O      -54.250     -57.655    -323.732
  O      -56.646     -58.306    -323.083
  H      -53.868     -52.544    -319.250
  H      -54.075     -58.588    -323.501
  H      -59.607     -51.282    -316.736
  H      -57.685     -55.277    -321.420
  H      -56.324     -52.140    -320.113
  H      -55.996     -53.827    -317.861
  H      -55.394     -55.740    -319.244
  H      -53.593     -53.780    -320.789
  H      -53.980     -55.250    -322.688
  H      -62.939     -53.797    -318.459
  H      -62.219     -54.804    -319.698
  H      -53.259     -56.186    -321.351
  P      -53.248     -56.603    -318.057
  C      -53.406     -55.797    -315.588
  O      -53.896     -56.669    -316.590
  O      -51.675     -56.616    -317.785
  O      -53.676     -57.660    -319.017
  H      -51.323     -57.523    -317.866
  H      -54.140     -55.752    -314.776
  H      -53.259     -54.786    -315.980
  H      -52.464     -56.183    -315.188
  H      -57.577     -54.790    -324.812
  H      -57.818     -55.373    -323.182
  H      -57.994     -56.464    -324.535

 3  4  5  6  7  8  9  10  11  12  22  25  29  30  31  32 0
 6-311+G(2d,p)
 ****
 33  36  37 0
 6-311+G(2d,p)
 ****
 1  2  13  14  15  16  17  18  19  20  21  23  24  26 0
 3-21G
 ****
 27  28  34  35  38  39  40  41  42  43  44  45  46  47  48 0
 3-21G
 ****


