%nproc=1
%NoSave
%Mem=1900MB
#P OB98/GEN NMR

erre ene a

0 1
  C     -262.628      51.264      -6.216
  O     -261.667      50.666      -5.370
  H     -262.291      51.170      -7.251
  H     -262.741      52.326      -5.976
  H     -263.589      50.754      -6.109
  P     -261.948      50.747      -3.792
  C     -261.633      48.255      -3.215
  O     -261.066      49.559      -3.168
  C     -261.432      47.637      -4.600
  O     -260.034      47.758      -4.961
  C     -261.799      46.149      -4.663
  O     -262.372      45.864      -5.941
  C     -260.451      45.458      -4.554
  O     -260.472      44.141      -5.099
  C     -259.551      46.446      -5.295
  N     -254.765      47.524      -6.654
  C     -255.956      47.937      -7.135
  N     -257.192      47.616      -6.694
  C     -257.116      46.824      -5.609
  C     -255.978      46.321      -5.005
  C     -254.751      46.698      -5.582
  N     -253.533      46.257      -5.122
  N     -256.316      45.507      -3.945
  C     -257.635      45.525      -3.902
  N     -258.161      46.291      -4.903
  O     -263.385      50.749      -3.393
  O     -261.118      52.051      -3.374
  H     -261.129      43.610      -4.602
  H     -260.223      52.044      -3.765
  H     -255.916      48.606      -7.992
  H     -258.250      44.991      -3.183
  H     -259.598      46.325      -6.385
  H     -260.155      45.379      -3.501
  H     -262.482      45.841      -3.873
  H     -262.004      48.219      -5.331
  H     -262.703      48.302      -2.984
  H     -252.702      46.577      -5.593
  H     -253.498      45.644      -4.321
  H     -261.139      47.646      -2.451
  P     -263.691      46.653      -6.395
  C     -263.666      46.980      -8.949
  O     -264.100      46.166      -7.871
  O     -263.658      48.132      -6.205
  O     -264.831      45.984      -5.486
  H     -265.433      46.685      -5.159
  H     -263.998      46.555      -9.873
  H     -262.598      47.037      -8.945
  H     -264.076      47.963      -8.841

 6  7  8  9  10  11  12  13  14  15  25  28  32  33  34  35 0
 6-311+G(2d,p)
 ****
 36  39  40 0
 6-311+G(2d,p)
 ****
 1  2  3  4  5  16  17  18  19  20  21  22  23  24 0
 3-21G
 ****
 26  27  29  30  31  37  38  41  42  43  44  45  46  47 0
 3-21G
 ****
 48 0
 3-21G
 ****


