%nproc=1
%NoSave
%Mem=1900MB
#P OB98/GEN NMR

erre ene a

0 1
  C     1373.196    -899.040     647.800
  O     1374.163    -898.010     647.741
  H     1372.484    -898.810     648.585
  H     1373.680    -900.000     648.031
  H     1372.660    -899.120     646.853
  P     1375.247    -898.020     646.561
  C     1373.760    -896.670     644.945
  O     1374.968    -896.710     645.657
  C     1373.281    -895.220     644.763
  O     1372.958    -894.630     646.052
  C     1374.347    -894.310     644.169
  O     1374.494    -894.520     642.769
  C     1373.795    -892.950     644.558
  O     1372.799    -892.490     643.638
  C     1373.183    -893.220     645.970
  N     1374.070    -892.740     647.055
  C     1373.474    -891.960     647.987
  O     1372.282    -891.640     647.983
  N     1374.309    -891.450     648.980
  C     1375.682    -891.600     648.972
  O     1376.412    -890.960     649.719
  C     1376.229    -892.540     647.966
  C     1375.402    -893.050     647.058
  O     1375.360    -899.300     645.797
  O     1376.625    -897.650     647.305
  H     1377.131    -898.470     647.423
  H     1372.275    -893.250     643.371
  H     1373.890    -890.850     649.642
  H     1377.299    -892.710     647.982
  H     1375.809    -893.710     646.266
  H     1372.193    -892.720     646.054
  H     1374.572    -892.170     644.585
  H     1375.303    -894.490     644.684
  H     1372.367    -895.210     644.139
  H     1372.982    -897.230     645.508
  H     1373.868    -897.160     643.972
  P     1375.896    -894.110     642.050
  C     1376.820    -896.500     642.188
  O     1376.490    -895.400     641.337
  O     1376.831    -893.360     642.897
  O     1375.375    -893.200     640.803
  H     1375.880    -892.380     640.813
  H     1377.208    -897.304     641.598
  H     1375.942    -896.828     642.704
  H     1377.557    -896.192     642.899

 6  7  8  9  10  11  12  13  14  15  16  27  31  32  33  34  35 0
 6-311+G(2d,p)
 ****
 36  37 0
 6-311+G(2d,p)
 ****
 1  2  3  4  5  17  18  19  20  21  22  23  24  25 0
 3-21G
 ****
 26  28  29  30  38  39  40  41  42  43  44  45 0
 3-21G
 ****


