%nproc=1
%NoSave
%Mem=1900MB
#P OB98/GEN NMR

erre ene a

0 1
  C     -101.911    1224.661    -509.892
  O     -100.874    1225.520    -509.458
  H     -101.996    1224.741    -510.973
  H     -102.861    1224.948    -509.436
  H     -101.666    1223.628    -509.632
  P     -100.602    1225.576    -507.877
  C      -98.495    1224.107    -508.167
  O      -99.779    1224.236    -507.557
  C      -97.416    1223.875    -507.103
  O      -97.664    1222.659    -506.399
  C      -96.004    1223.790    -507.655
  O      -95.457    1225.075    -507.854
  C      -95.303    1223.049    -506.524
  O      -94.962    1223.985    -505.479
  C      -96.384    1222.075    -506.027
  N      -94.907    1217.256    -505.083
  C      -94.686    1218.403    -504.410
  N      -95.059    1219.664    -504.750
  C      -95.746    1219.662    -505.904
  C      -96.042    1218.567    -506.701
  C      -95.601    1217.310    -506.250
  N      -95.824    1216.123    -506.938
  N      -96.758    1218.947    -507.821
  C      -96.940    1220.240    -507.668
  N      -96.310    1220.728    -506.544
  O     -101.800    1225.828    -507.022
  O      -99.475    1226.715    -507.801
  H      -94.574    1223.463    -504.747
  H      -98.835    1226.607    -508.535
  H      -94.136    1218.316    -503.482
  H      -97.519    1220.872    -508.335
  H      -96.383    1221.995    -504.931
  H      -94.373    1222.573    -506.832
  H      -95.965    1223.174    -508.566
  H      -97.504    1224.700    -506.370
  H      -98.258    1224.995    -508.757
  H      -95.310    1215.316    -506.643
  H      -96.224    1216.196    -507.857
  H      -98.542    1223.248    -508.850
  P      -94.897    1225.540    -509.280
  C      -97.218    1226.584    -509.641
  O      -96.201    1225.740    -510.188
  O      -93.850    1224.648    -509.848
  O      -94.378    1227.031    -509.040
  H      -93.786    1227.303    -509.768
  H      -98.037    1226.646    -510.327
  H      -96.818    1227.562    -509.474
  H      -97.560    1226.175    -508.713

 6  7  8  9  10  11  12  13  14  15  25  28  32  33  34  35 0
 6-311+G(2d,p)
 ****
 36  39  40 0
 6-311+G(2d,p)
 ****
 1  2  3  4  5  16  17  18  19  20  21  22  23  24 0
 3-21G
 ****
 26  27  29  30  31  37  38  41  42  43  44  45  46  47 0
 3-21G
 ****
 48 0
 3-21G
 ****


