%nproc=1
%NoSave
%Mem=1900MB
#P OB98/GEN NMR

erre ene a

0 1
  C        4.421     -56.137      33.032
  O        3.664     -55.358      33.933
  H        3.834     -56.298      32.124
  H        4.641     -57.109      33.482
  H        5.353     -55.630      32.763
  P        4.436     -54.743      35.196
  C        3.875     -56.861      36.579
  O        4.887     -55.980      36.121
  C        3.997     -57.074      38.089
  O        5.314     -57.612      38.379
  C        3.828     -55.788      38.909
  O        3.106     -56.095      40.106
  C        5.256     -55.402      39.260
  O        5.334     -54.613      40.446
  C        5.917     -56.771      39.380
  N       10.265     -55.570      41.629
  C        8.984     -55.637      42.142
  N        8.836     -55.332      43.449
  N        7.937     -55.976      41.433
  C        8.241     -56.290      40.149
  C        9.464     -56.258      39.523
  C       10.611     -55.854      40.312
  O       11.766     -55.752      39.909
  N        9.356     -56.613      38.202
  C        8.070     -56.860      38.032
  N        7.354     -56.684      39.186
  O        3.263     -54.052      36.039
  O        5.522     -53.770      34.872
  H        4.813     -55.073      41.141
  H        3.403     -53.086      36.068
  H       11.033     -55.291      42.217
  H        7.605     -57.159      37.101
  H        5.750     -57.233      40.363
  H        5.695     -54.827      38.437
  H        9.604     -55.110      44.064
  H        3.310     -54.996      38.365
  H        7.911     -55.411      43.856
  H        3.269     -57.834      38.396
  H        3.982     -57.824      36.066
  H        2.891     -56.441      36.342
  P        1.523     -55.825      40.089
  C        1.702     -53.751      41.634
  O        1.275     -54.264      40.379
  O        1.015     -56.541      41.428
  O        0.830     -56.368      38.884
  H        0.524     -57.354      41.204
  H        1.475     -52.707      41.688
  H        2.758     -53.892      41.737
  H        1.195     -54.268      42.422

 6  7  8  9  10  11  12  13  14  15  26  29  33  34 0
 6-311+G(2d,p)
 ****
 36  38  39  40  41 0
 6-311+G(2d,p)
 ****
 1  2  3  4  5  16  17  18  19  20  21  22  23  24  25 0
 3-21G
 ****
 27  28  30  31  32  35  37  42  43  44  45  46  47 0
 3-21G
 ****
 48  49 0
 3-21G
 ****


