%nproc=1
%NoSave
%Mem=1900MB
#P OB98/GEN NMR

erre ene a

0 1
  C     -166.773     280.368     372.903
  O     -167.131     280.154     374.248
  P     -166.298     279.129     375.163
  C     -165.716     278.933     377.663
  O     -166.312     279.738     376.647
  C     -165.342     279.799     378.864
  O     -164.146     280.584     378.593
  C     -166.394     280.832     379.238
  O     -167.633     280.357     379.721
  C     -165.600     281.747     380.153
  O     -165.512     281.213     381.478
  C     -164.208     281.735     379.469
  N     -163.942     282.981     378.751
  C     -163.940     284.140     379.520
  O     -164.141     284.156     380.734
  N     -163.722     285.308     378.833
  C     -163.559     285.431     377.485
  O     -163.414     286.513     376.931
  C     -163.590     284.171     376.723
  C     -163.778     283.024     377.380
  O     -164.947     278.774     374.645
  O     -167.289     277.877     375.301
  H     -166.395     280.867     381.711
  H     -168.146     278.084     375.717
  H     -163.726     286.160     379.374
  H     -163.453     284.233     375.652
  H     -163.805     282.081     376.838
  H     -163.418     281.603     380.224
  H     -166.055     282.741     380.238
  H     -166.631     281.411     378.339
  H     -165.109     279.136     379.703
  H     -164.803     278.471     377.261
  H     -166.403     278.130     377.951
  P     -168.721     281.292     380.430
  C     -171.022     280.951     381.577
  O     -170.028     280.416     380.730
  O     -168.922     282.653     379.840
  O     -168.095     281.449     381.902
  H     -168.341     282.323     382.254
  H     -171.818     280.206     381.694
  H     -171.465     281.855     381.126
  H     -170.604     281.183     382.559
  H     -167.442     281.079     372.465
  H     -166.833     279.444     372.367
  H     -165.772     280.743     372.856

 3  4  5  6  7  8  9  10  11  12  13  23  28  29  30  31  32 0
 6-311+G(2d,p)
 ****
 33  34 0
 6-311+G(2d,p)
 ****
 1  2  14  15  16  17  18  19  20  21  22  24  25  26  27 0
 3-21G
 ****
 35  36  37  38  39  40  41  42  43  44  45 0
 3-21G
 ****


