%nproc=1
%NoSave
%Mem=1900MB
#P OB98/GEN NMR

erre ene a

0 1
  C     1172.314    -346.447     597.949
  O     1170.995    -346.797     598.307
  H     1172.854    -347.357     597.667
  H     1172.821    -345.983     598.797
  H     1172.311    -345.765     597.096
  P     1169.949    -345.604     598.531
  C     1167.899    -345.939     596.967
  O     1169.200    -345.385     597.126
  C     1167.957    -347.147     596.028
  O     1168.937    -348.090     596.552
  C     1166.621    -347.896     595.895
  O     1166.510    -348.371     594.553
  C     1166.804    -349.078     596.829
  O     1165.970    -350.190     596.518
  C     1168.297    -349.376     596.634
  N     1168.857    -350.168     597.730
  C     1168.527    -351.525     597.768
  O     1167.881    -352.112     596.906
  N     1168.991    -352.209     598.859
  C     1169.699    -351.682     599.898
  O     1170.064    -352.350     600.862
  C     1170.009    -350.254     599.807
  C     1169.577    -349.576     598.747
  O     1170.896    -344.319     598.652
  O     1169.038    -345.752     599.707
  H     1171.152    -344.169     599.576
  H     1166.155    -350.447     595.591
  H     1168.761    -353.189     598.901
  H     1170.566    -349.802     600.617
  H     1169.768    -348.505     598.659
  H     1168.464    -349.894     595.686
  H     1166.598    -348.781     597.867
  H     1165.745    -347.297     596.158
  H     1168.324    -346.816     595.052
  H     1167.237    -345.183     596.528
  H     1167.507    -346.230     597.946
  P     1165.904    -347.359     593.463
  C     1167.401    -347.806     591.355
  O     1167.128    -346.994     592.493
  O     1165.687    -346.040     594.345
  O     1164.676    -347.883     592.795
  H     1166.376    -345.933     595.025
  H     1168.247    -347.412     590.831
  H     1166.550    -347.810     590.707
  H     1167.612    -348.806     591.673

 6  7  8  9  10  11  12  13  14  15  16  27  31  32  33  34  35 0
 6-311+G(2d,p)
 ****
 36  37 0
 6-311+G(2d,p)
 ****
 1  2  3  4  5  17  18  19  20  21  22  23  24  25 0
 3-21G
 ****
 26  28  29  30  38  39  40  41  42  43  44  45 0
 3-21G
 ****


