%nproc=1
%NoSave
%Mem=1900MB
#P OB98/GEN NMR

erre ene a

0 1
  C     -502.807    -404.924     807.479
  O     -502.721    -406.300     807.092
  P     -503.985    -407.246     807.382
  C     -504.943    -407.769     805.018
  O     -505.070    -407.026     806.224
  C     -504.455    -406.864     803.878
  O     -503.146    -406.318     804.151
  C     -504.322    -407.581     802.547
  O     -505.573    -407.681     801.881
  C     -503.402    -406.634     801.794
  O     -504.161    -405.519     801.279
  C     -502.446    -406.161     802.897
  N     -497.750    -406.687     800.911
  C     -498.778    -405.857     800.603
  N     -500.000    -405.790     801.163
  C     -500.122    -406.690     802.152
  C     -499.164    -407.604     802.579
  C     -497.931    -407.584     801.908
  N     -496.896    -408.426     802.226
  N     -499.655    -408.376     803.612
  C     -500.875    -407.924     803.819
  N     -501.208    -406.913     802.955
  O     -504.665    -406.559     808.659
  O     -503.620    -408.672     807.658
  H     -503.516    -404.823     801.042
  H     -505.054    -407.243     809.233
  H     -498.584    -405.148     799.800
  H     -501.555    -408.294     804.578
  H     -502.184    -405.102     802.794
  H     -502.916    -407.109     800.934
  H     -503.839    -408.558     802.668
  H     -505.166    -406.032     803.784
  H     -505.899    -408.224     804.754
  H     -496.027    -408.335     801.727
  H     -497.016    -409.081     802.989
  H     -504.245    -408.596     805.184
  P     -505.911    -409.072     801.153
  C     -508.429    -408.712     801.639
  O     -507.304    -409.555     801.767
  O     -504.835    -410.075     801.790
  O     -505.823    -409.026     799.663
  H     -504.603    -410.775     801.142
  H     -509.334    -409.302     801.827
  H     -508.496    -408.284     800.637
  H     -508.380    -407.910     802.382
  H     -501.896    -404.424     807.224
  H     -502.965    -404.860     808.535
  H     -503.624    -404.460     806.967

 3  4  5  6  7  8  9  10  11  12  22  25  29  30  31  32 0
 6-311+G(2d,p)
 ****
 33  36  37 0
 6-311+G(2d,p)
 ****
 1  2  13  14  15  16  17  18  19  20  21  23  24  26 0
 3-21G
 ****
 27  28  34  35  38  39  40  41  42  43  44  45  46  47  48 0
 3-21G
 ****


