%nproc=1
%NoSave
%Mem=1900MB
#P OB98/GEN NMR

erre ene a

0 1
  C      198.794    -582.172      -4.705
  O      197.641    -582.067      -5.521
  H      198.638    -581.582      -3.800
  H      199.679    -581.794      -5.222
  H      198.954    -583.218      -4.414
  P      197.723    -582.636      -7.019
  C      198.773    -581.810      -9.232
  O      198.679    -581.619      -7.821
  C      198.372    -580.533      -9.975
  O      199.259    -579.450      -9.627
  C      198.473    -580.651     -11.492
  O      197.510    -581.513     -12.074
  C      198.539    -579.193     -11.934
  O      197.256    -578.591     -12.091
  C      199.276    -578.531     -10.737
  N      200.644    -578.152     -11.090
  C      200.796    -577.520     -12.334
  O      199.844    -577.321     -13.109
  N      202.065    -577.172     -12.675
  C      203.196    -577.428     -11.948
  O      204.310    -577.126     -12.332
  C      202.973    -578.113     -10.653
  C      201.731    -578.431     -10.297
  O      196.404    -582.884      -7.697
  O      198.632    -583.951      -6.876
  H      196.767    -578.739     -11.262
  H      198.538    -584.543      -7.672
  H      202.191    -576.713     -13.567
  H      203.853    -578.333     -10.050
  H      201.546    -578.945      -9.353
  H      198.752    -577.630     -10.414
  H      199.070    -579.089     -12.887
  H      199.448    -581.086     -11.737
  H      197.359    -580.257      -9.669
  H      198.082    -582.620      -9.512
  H      199.800    -582.096      -9.496
  P      197.806    -582.440     -13.328
  C      198.107    -582.141     -15.903
  O      197.878    -581.511     -14.649
  O      197.068    -583.735     -13.410
  O      199.373    -582.794     -13.108
  H      199.527    -583.715     -13.429
  H      198.128    -581.401     -16.675
  H      197.321    -582.840     -16.100
  H      199.044    -582.657     -15.877

 6  7  8  9  10  11  12  13  14  15  16  26  31  32  33  34  35 0
 6-311+G(2d,p)
 ****
 36  37 0
 6-311+G(2d,p)
 ****
 1  2  3  4  5  17  18  19  20  21  22  23  24  25 0
 3-21G
 ****
 27  28  29  30  38  39  40  41  42  43  44  45 0
 3-21G
 ****


