%nproc=1
%NoSave
%Mem=1900MB
#P OB98/GEN NMR

erre ene a

0 1
  C     -549.254     451.587     557.021
  O     -549.722     450.289     556.657
  P     -550.320     449.397     557.849
  C     -552.752     449.383     556.939
  O     -551.884     449.752     558.009
  C     -554.035     450.198     556.965
  O     -554.804     449.925     558.178
  C     -553.834     451.708     556.905
  O     -554.917     452.274     556.164
  C     -553.941     452.127     558.361
  O     -554.210     453.517     558.485
  C     -555.077     451.217     558.804
  N     -556.149     453.678     563.080
  C     -556.019     454.140     561.799
  N     -556.250     455.475     561.609
  N     -555.692     453.393     560.786
  C     -555.518     452.085     561.105
  C     -555.641     451.484     562.342
  C     -555.975     452.350     563.464
  O     -556.095     451.973     564.628
  N     -555.410     450.137     562.262
  C     -555.099     449.939     561.003
  N     -555.205     451.076     560.241
  O     -549.655     450.053     559.160
  O     -550.001     447.940     557.738
  H     -554.948     453.743     557.891
  H     -548.903     449.504     559.452
  H     -556.385     454.293     563.841
  H     -554.831     448.993     560.580
  H     -556.057     451.562     558.441
  H     -553.031     451.903     558.916
  H     -556.557     456.087     562.340
  H     -552.866     452.018     556.468
  H     -556.216     455.836     560.669
  H     -554.662     449.885     556.115
  H     -552.986     448.314     557.014
  H     -552.212     449.488     555.986
  P     -554.717     452.521     554.600
  C     -557.089     451.693     553.958
  O     -555.689     451.509     553.825
  O     -553.251     451.915     554.343
  O     -554.802     453.951     554.190
  H     -552.776     452.483     553.690
  H     -557.579     451.290     553.088
  H     -557.355     452.748     554.078
  H     -557.431     451.133     554.839
  H     -548.880     452.088     556.153
  H     -548.471     451.494     557.744
  H     -550.060     452.152     557.439

 3  4  5  6  7  8  9  10  11  12  23  26  30  31 0
 6-311+G(2d,p)
 ****
 33  35  36  37  38 0
 6-311+G(2d,p)
 ****
 1  2  13  14  15  16  17  18  19  20  21  22  24  25 0
 3-21G
 ****
 27  28  29  32  34  39  40  41  42  43  44  45  46  47  48  49 0
 3-21G
 ****


