%nproc=1
%NoSave
%Mem=1900MB
#P OB98/GEN NMR

erre ene a

0 1
  C      193.374      60.452      63.866
  O      192.103      59.901      63.583
  P      190.896      60.051      64.623
  C      189.791      61.955      65.936
  O      190.942      61.550      65.206
  C      190.179      62.670      67.232
  O      190.735      61.697      68.161
  C      191.220      63.787      67.063
  O      190.906      64.796      68.027
  C      192.520      63.095      67.450
  O      193.543      64.009      67.823
  C      192.023      62.199      68.580
  N      194.841      59.849      72.141
  C      194.098      60.975      72.184
  N      193.400      61.552      71.182
  C      193.514      60.839      70.050
  C      194.256      59.690      69.846
  C      194.935      59.175      70.967
  N      195.666      58.009      70.954
  N      194.171      59.282      68.525
  C      193.388      60.174      67.950
  N      192.914      61.095      68.844
  O      190.815      58.983      65.661
  O      189.589      60.061      63.703
  H      193.162      64.666      68.435
  H      189.118      59.206      63.785
  H      194.056      61.482      73.143
  H      193.135      60.200      66.899
  H      191.884      62.756      69.516
  H      192.886      62.502      66.603
  H      191.256      64.212      66.052
  H      189.265      63.066      67.690
  H      189.211      61.059      66.180
  H      195.998      57.665      71.840
  H      195.535      57.357      70.180
  H      189.170      62.610      65.316
  P      191.223      66.335      67.708
  C      190.533      68.001      65.890
  O      190.598      66.638      66.264
  O      192.647      66.750      67.890
  O      190.244      67.129      68.700
  H      190.550      68.056      68.785
  H      189.659      68.462      66.360
  H      190.434      68.070      64.804
  H      191.436      68.540      66.198
  H      194.040      60.247      63.054
  H      193.760      60.016      64.763
  H      193.283      61.510      63.994

 3  4  5  6  7  8  9  10  11  12  22  25  29  30  31  32 0
 6-311+G(2d,p)
 ****
 33  36  37 0
 6-311+G(2d,p)
 ****
 1  2  13  14  15  16  17  18  19  20  21  23  24  26 0
 3-21G
 ****
 27  28  34  35  38  39  40  41  42  43  44  45  46  47  48 0
 3-21G
 ****


