%nproc=1
%NoSave
%Mem=1900MB
#P OB98/GEN NMR

erre ene a

0 1
  C      528.140       2.494     162.038
  O      528.145       3.384     160.940
  H      527.576       1.598     161.758
  H      527.650       2.962     162.893
  H      529.161       2.207     162.301
  P      529.062       4.691     161.072
  C      529.096       6.657     162.816
  O      528.333       5.672     162.118
  C      528.680       8.058     162.358
  O      527.296       8.322     162.677
  C      529.436       9.180     163.054
  O      530.778       9.273     162.637
  C      528.575      10.368     162.654
  O      528.865      10.787     161.316
  C      527.155       9.760     162.740
  N      526.440      10.178     163.938
  C      525.932      11.490     163.921
  O      526.082      12.205     162.933
  N      525.279      11.956     165.050
  C      525.137      11.187     166.076
  N      524.491      11.704     167.158
  C      525.633       9.793     166.123
  C      526.272       9.368     165.041
  O      528.833       5.430     159.671
  O      530.498       4.440     161.405
  H      528.474      10.114     160.719
  H      527.887       5.574     159.457
  H      525.472       9.183     167.007
  H      526.676       8.356     164.986
  H      526.549      10.060     161.863
  H      528.746      11.229     163.295
  H      529.362       9.068     164.138
  H      528.799       8.106     161.265
  H      524.184      12.674     167.096
  H      530.172       6.501     162.668
  H      524.352      11.210     168.029
  H      528.893       6.535     163.887
  P      531.885       9.919     163.601
  C      532.173      12.194     164.777
  O      531.503      11.471     163.742
  O      533.296       9.670     163.206
  O      531.501       9.345     165.047
  H      530.603       9.576     165.355
  H      531.840      13.211     164.775
  H      533.229      12.164     164.607
  H      531.952      11.748     165.724

 6  7  8  9  10  11  12  13  14  15  16  26  30  31  32  33  35 0
 6-311+G(2d,p)
 ****
 37  38 0
 6-311+G(2d,p)
 ****
 1  2  3  4  5  17  18  19  20  21  22  23  24  25 0
 3-21G
 ****
 27  28  29  34  36  39  40  41  42  43  44  45  46 0
 3-21G
 ****


