%nproc=1
%NoSave
%Mem=1900MB
#P OB98/GEN NMR

erre ene a

0 1
  C      -59.272      -4.617    -198.909
  O      -59.272      -5.593    -197.862
  P      -58.760      -5.121    -196.413
  C      -60.689      -4.265    -194.866
  O      -59.989      -5.374    -195.407
  C      -62.062      -4.692    -194.327
  O      -62.768      -5.470    -195.345
  C      -62.005      -5.546    -193.055
  O      -63.128      -5.154    -192.240
  C      -62.193      -6.959    -193.572
  O      -62.667      -7.838    -192.560
  C      -63.179      -6.702    -194.722
  N      -63.218      -7.809    -195.682
  C      -63.798      -9.002    -195.251
  O      -64.189      -9.175    -194.098
  N      -63.867     -10.000    -196.182
  C      -63.348      -9.960    -197.447
  O      -63.439     -10.886    -198.242
  C      -62.642      -8.712    -197.808
  C      -62.614      -7.711    -196.921
  O      -58.710      -3.533    -196.596
  O      -57.464      -5.755    -196.017
  H      -59.438      -3.186    -197.148
  H      -62.939      -8.687    -192.975
  H      -64.309     -10.864    -195.899
  H      -62.168      -8.664    -198.782
  H      -62.086      -6.791    -197.148
  H      -64.191      -6.556    -194.330
  H      -61.242      -7.350    -193.955
  H      -61.076      -5.404    -192.483
  H      -62.655      -3.786    -194.144
  H      -60.837      -3.505    -195.641
  H      -60.081      -3.801    -194.073
  P      -62.832      -4.402    -190.845
  C      -63.716      -2.100    -191.745
  O      -63.811      -3.130    -190.780
  O      -61.404      -3.745    -191.180
  O      -62.792      -5.291    -189.643
  H      -61.383      -3.295    -192.043
  H      -64.605      -1.469    -191.670
  H      -63.667      -2.513    -192.758
  H      -62.825      -1.491    -191.553
  H      -59.634      -5.063    -199.812
  H      -58.276      -4.258    -199.062
  H      -59.907      -3.800    -198.635

 3  4  5  6  7  8  9  10  11  12  13  24  28  29  30  31  32 0
 6-311+G(2d,p)
 ****
 33  34 0
 6-311+G(2d,p)
 ****
 1  2  14  15  16  17  18  19  20  21  22  23  25  26  27 0
 3-21G
 ****
 35  36  37  38  39  40  41  42  43  44  45 0
 3-21G
 ****


