%nproc=1
%NoSave
%Mem=1900MB
#P OB98/GEN NMR

erre ene a

0 1
  C     1184.622    2025.064    -284.450
  O     1185.663    2024.105    -284.474
  H     1184.664    2025.603    -283.489
  H     1183.660    2024.570    -284.523
  H     1184.749    2025.780    -285.255
  P     1185.784    2023.124    -285.739
  C     1187.966    2024.205    -286.593
  O     1186.597    2023.947    -286.861
  C     1188.594    2025.025    -287.747
  O     1187.803    2026.262    -287.857
  C     1190.043    2025.407    -287.482
  O     1190.923    2025.033    -288.561
  C     1189.967    2026.878    -287.104
  O     1191.142    2027.629    -287.360
  C     1188.739    2027.381    -287.849
  N     1188.100    2028.551    -287.263
  C     1188.778    2029.752    -287.361
  O     1189.882    2029.920    -287.906
  N     1188.180    2030.828    -286.773
  C     1186.982    2030.832    -286.112
  O     1186.466    2031.834    -285.621
  C     1186.303    2029.530    -286.033
  C     1186.885    2028.446    -286.584
  O     1184.515    2022.510    -286.190
  O     1186.818    2022.021    -285.267
  H     1190.957    2028.547    -287.104
  H     1186.360    2021.197    -285.038
  H     1188.665    2031.722    -286.835
  H     1185.360    2029.451    -285.514
  H     1186.416    2027.478    -286.554
  H     1188.991    2027.611    -288.880
  H     1189.785    2026.947    -286.011
  H     1190.453    2024.847    -286.618
  H     1188.471    2024.469    -288.691
  H     1188.483    2023.235    -286.497
  H     1188.070    2024.755    -285.656
  P     1191.637    2023.626    -288.707
  C     1190.143    2022.786    -290.677
  O     1190.587    2022.606    -289.358
  O     1192.378    2023.178    -287.492
  O     1192.699    2023.876    -289.900
  H     1193.471    2023.313    -289.688
  H     1189.451    2022.010    -290.929
  H     1190.979    2022.748    -291.343
  H     1189.660    2023.737    -290.764

 6  7  8  9  10  11  12  13  14  15  16  26  31  32  33  34  35 0
 6-311+G(2d,p)
 ****
 36  37 0
 6-311+G(2d,p)
 ****
 1  2  3  4  5  17  18  19  20  21  22  23  24  25 0
 3-21G
 ****
 27  28  29  30  38  39  40  41  42  43  44  45 0
 3-21G
 ****


