%nproc=1
%NoSave
%Mem=1900MB
#P OB98/GEN NMR

erre ene a

0 1
  C      -23.813    -106.893       5.310
  O      -23.763    -105.466       5.353
  P      -23.205    -104.824       6.716
  C      -25.405    -103.637       7.404
  O      -24.453    -104.644       7.711
  C      -26.648    -103.766       8.290
  O      -27.571    -102.661       8.046
  C      -27.435    -105.067       8.063
  O      -27.966    -105.455       9.337
  C      -28.544    -104.609       7.132
  O      -29.624    -105.524       7.053
  C      -28.855    -103.250       7.747
  N      -33.171    -102.871       5.056
  C      -32.661    -103.869       5.809
  N      -31.498    -103.895       6.494
  C      -30.842    -102.730       6.350
  C      -31.234    -101.623       5.614
  C      -32.464    -101.721       4.942
  N      -32.982    -100.718       4.155
  N      -30.276    -100.622       5.690
  C      -29.300    -101.157       6.400
  N      -29.631    -102.389       6.885
  O      -22.828    -103.328       6.297
  O      -22.044    -105.564       7.293
  H      -30.047    -105.614       7.931
  H      -21.870    -103.249       6.136
  H      -33.267    -104.770       5.866
  H      -28.340    -100.698       6.590
  H      -29.406    -103.341       8.693
  H      -28.141    -104.490       6.119
  H      -26.827    -105.884       7.664
  H      -26.332    -103.700       9.339
  H      -25.704    -103.711       6.356
  H      -33.871    -100.884       3.709
  H      -32.481     -99.851       4.035
  H      -24.935    -102.655       7.521
  P      -27.120    -106.465      10.253
  C      -28.084    -108.535       9.085
  O      -26.922    -107.768       9.337
  O      -28.258    -106.965      11.265
  O      -25.913    -105.899      10.919
  H      -29.055    -107.251      10.785
  H      -27.828    -109.339       8.390
  H      -28.861    -107.911       8.636
  H      -28.449    -108.976      10.017
  H      -24.198    -107.208       4.363
  H      -24.451    -107.251       6.091
  H      -22.828    -107.289       5.444

 3  4  5  6  7  8  9  10  11  12  22  25  29  30  31  32 0
 6-311+G(2d,p)
 ****
 33  36  37 0
 6-311+G(2d,p)
 ****
 1  2  13  14  15  16  17  18  19  20  21  23  24  26 0
 3-21G
 ****
 27  28  34  35  38  39  40  41  42  43  44  45  46  47  48 0
 3-21G
 ****


