%nproc=1
%NoSave
%Mem=1900MB
#P OB98/GEN NMR

erre ene a

0 1
  C       36.837     -76.630    -364.902
  O       37.424     -75.358    -365.080
  P       37.118     -74.167    -364.052
  C       38.105     -72.507    -365.761
  O       36.988     -72.835    -364.945
  C       37.642     -72.127    -367.165
  O       36.968     -73.242    -367.808
  C       36.623     -70.998    -367.198
  O       37.058     -69.715    -366.784
  C       36.085     -71.122    -368.609
  O       36.957     -70.502    -369.558
  C       36.082     -72.661    -368.807
  N       34.737     -73.221    -368.731
  C       33.887     -72.923    -369.797
  O       34.231     -72.236    -370.761
  N       32.624     -73.426    -369.709
  C       32.105     -74.130    -368.657
  O       30.937     -74.507    -368.623
  C       33.040     -74.399    -367.547
  C       34.290     -73.938    -367.632
  O       38.063     -74.056    -362.905
  O       35.594     -74.437    -363.622
  H       36.665     -70.773    -370.449
  H       34.956     -74.429    -364.360
  H       31.987     -73.208    -370.463
  H       32.670     -74.968    -366.710
  H       34.997     -74.122    -366.833
  H       36.509     -72.924    -369.791
  H       35.106     -70.650    -368.721
  H       35.799     -71.260    -366.519
  H       38.531     -71.898    -367.768
  H       38.763     -73.385    -365.827
  H       38.677     -71.691    -365.294
  P       36.221     -68.780    -365.784
  C       36.638     -66.896    -367.513
  O       35.745     -67.486    -366.595
  O       36.795     -68.568    -364.419
  O       34.850     -69.606    -365.648
  H       34.473     -69.456    -364.763
  H       36.169     -66.004    -367.938
  H       36.859     -67.591    -368.334
  H       37.572     -66.599    -367.013
  H       37.161     -77.285    -365.684
  H       35.771     -76.538    -364.932
  H       37.134     -77.031    -363.955

 3  4  5  6  7  8  9  10  11  12  13  23  28  29  30  31  32 0
 6-311+G(2d,p)
 ****
 33  34 0
 6-311+G(2d,p)
 ****
 1  2  14  15  16  17  18  19  20  21  22  24  25  26  27 0
 3-21G
 ****
 35  36  37  38  39  40  41  42  43  44  45 0
 3-21G
 ****


