%nproc=1
%NoSave
%Mem=1900MB
#P OB98/GEN NMR

erre ene a

0 1
  C     -278.279     -99.411     161.833
  O     -279.076     -98.221     161.848
  P     -280.641     -98.271     161.472
  C     -281.789     -99.219     163.560
  O     -281.503     -98.038     162.813
  C     -281.950     -98.965     165.066
  O     -280.753     -98.353     165.624
  C     -283.134     -98.059     165.442
  O     -283.600     -98.539     166.712
  C     -282.469     -96.704     165.590
  O     -283.253     -95.782     166.339
  C     -281.126     -97.097     166.223
  N     -280.100     -96.080     166.039
  C     -279.516     -95.546     167.196
  O     -279.907     -95.896     168.310
  N     -278.535     -94.591     167.060
  C     -278.232     -94.142     165.880
  N     -277.266     -93.183     165.809
  C     -278.878     -94.616     164.638
  C     -279.790     -95.583     164.791
  O     -281.048     -99.463     160.671
  O     -280.880     -96.918     160.646
  H     -282.747     -94.945     166.419
  H     -281.598     -97.063     159.995
  H     -278.619     -94.190     163.681
  H     -280.313     -95.999     163.938
  H     -281.248     -97.274     167.305
  H     -282.297     -96.265     164.590
  H     -283.934     -98.060     164.709
  H     -282.060     -99.940     165.555
  H     -276.864     -92.867     166.685
  H     -280.974     -99.935     163.406
  H     -277.041     -92.685     164.959
  H     -282.700     -99.681     163.163
  P     -284.860     -99.521     166.837
  C     -283.979    -101.929     166.917
  O     -284.367    -100.797     167.678
  O     -285.526     -99.856     165.537
  O     -285.872     -98.785     167.842
  H     -286.759     -99.180     167.748
  H     -283.468    -102.644     167.574
  H     -283.298    -101.643     166.108
  H     -284.864    -102.411     166.487
  H     -277.274     -99.171     162.110
  H     -278.287     -99.833     160.850
  H     -278.681    -100.118     162.528

 3  4  5  6  7  8  9  10  11  12  13  23  27  28  29  30  32 0
 6-311+G(2d,p)
 ****
 34  35 0
 6-311+G(2d,p)
 ****
 1  2  14  15  16  17  18  19  20  21  22  24  25  26 0
 3-21G
 ****
 31  33  36  37  38  39  40  41  42  43  44  45  46 0
 3-21G
 ****


