%nproc=1
%NoSave
%Mem=1900MB
#P OB98/GEN NMR

erre ene a

0 1
  C      106.204     415.087     569.769
  O      105.076     414.205     569.843
  P      104.569     413.353     568.584
  C      102.395     414.632     568.039
  O      103.718     414.321     567.617
  C      101.728     415.657     567.118
  O      102.145     417.001     567.452
  C      102.060     415.478     565.633
  O      101.293     414.430     565.077
  C      101.744     416.866     565.087
  O      100.333     417.016     564.870
  C      102.207     417.776     566.244
  N      105.224     420.452     563.101
  C      103.914     420.122     563.031
  N      103.181     419.391     563.903
  C      103.937     419.031     564.959
  C      105.274     419.295     565.171
  C      105.934     420.048     564.175
  N      107.270     420.377     564.237
  N      105.713     418.743     566.350
  C      104.637     418.158     566.852
  N      103.544     418.308     566.051
  O      103.866     412.089     568.936
  O      105.893     413.055     567.734
  H      100.076     416.389     564.169
  H      105.779     412.223     567.236
  H      103.384     420.479     562.149
  H      104.613     417.622     567.798
  H      101.531     418.625     566.383
  H      102.249     417.073     564.134
  H      103.129     415.269     565.513
  H      100.649     415.597     567.268
  H      102.443     415.038     569.058
  H      107.675     420.888     563.471
  H      107.822     420.032     565.016
  H      101.808     413.709     568.056
  P      101.980     413.025     564.731
  C      103.253     413.754     562.628
  O      103.362     413.348     563.975
  O      101.105     412.026     564.050
  O      102.483     412.489     566.157
  H      102.477     411.512     566.154
  H      103.107     412.877     561.989
  H      104.175     414.256     562.333
  H      102.422     414.448     562.487
  H      106.359     415.548     570.722
  H      106.019     415.842     569.034
  H      107.076     414.529     569.496

 3  4  5  6  7  8  9  10  11  12  22  25  29  30  31  32 0
 6-311+G(2d,p)
 ****
 33  36  37 0
 6-311+G(2d,p)
 ****
 1  2  13  14  15  16  17  18  19  20  21  23  24  26 0
 3-21G
 ****
 27  28  34  35  38  39  40  41  42  43  44  45  46  47  48 0
 3-21G
 ****


