%nproc=1
%NoSave
%Mem=1900MB
#P OB98/GEN NMR

erre ene a

0 1
  C      111.225     318.973    -149.535
  O      111.922     319.964    -150.293
  P      111.415     320.333    -151.764
  C      113.473     320.831    -153.251
  O      112.438     321.369    -152.435
  C      114.588     321.865    -153.432
  O      114.102     323.060    -154.090
  C      115.160     322.358    -152.110
  O      115.922     321.433    -151.362
  C      115.840     323.653    -152.515
  O      117.143     323.419    -153.049
  C      114.886     324.174    -153.616
  N      114.032     325.267    -153.151
  C      114.510     326.553    -153.374
  O      115.603     326.791    -153.886
  N      113.700     327.572    -152.949
  C      112.505     327.431    -152.308
  O      111.829     328.379    -151.929
  C      112.062     326.047    -152.079
  C      112.833     325.043    -152.505
  O      109.975     320.696    -151.881
  O      111.713     318.982    -152.586
  H      117.030     322.992    -153.919
  H      110.958     318.826    -153.186
  H      114.027     328.513    -153.110
  H      111.121     325.897    -151.569
  H      112.526     324.015    -152.346
  H      115.460     324.542    -154.475
  H      115.962     324.329    -151.662
  H      114.316     322.634    -151.462
  H      115.364     321.432    -154.068
  H      113.064     320.540    -154.221
  H      113.852     319.914    -152.786
  P      115.847     321.320    -149.764
  C      118.322     320.568    -149.598
  O      116.977     320.293    -149.275
  O      114.493     321.190    -149.149
  O      116.475     322.732    -149.319
  H      116.040     323.015    -148.493
  H      118.947     319.761    -149.203
  H      118.639     321.510    -149.143
  H      118.454     320.614    -150.681
  H      111.698     318.855    -148.582
  H      111.245     318.042    -150.061
  H      110.210     319.281    -149.394

 3  4  5  6  7  8  9  10  11  12  13  23  28  29  30  31  32 0
 6-311+G(2d,p)
 ****
 33  34 0
 6-311+G(2d,p)
 ****
 1  2  14  15  16  17  18  19  20  21  22  24  25  26  27 0
 3-21G
 ****
 35  36  37  38  39  40  41  42  43  44  45 0
 3-21G
 ****


