%nproc=1
%NoSave
%Mem=1900MB
#P OB98/GEN NMR

erre ene a

0 1
  C     -321.310    -348.118     219.061
  O     -319.967    -347.805     219.371
  H     -321.321    -348.900     218.297
  H     -321.816    -347.235     218.663
  H     -321.842    -348.484     219.943
  P     -319.661    -346.886     220.646
  C     -317.596    -348.177     221.497
  O     -318.078    -346.978     220.911
  C     -316.967    -349.083     220.436
  O     -315.955    -348.322     219.707
  C     -316.274    -350.335     221.009
  O     -316.410    -351.385     220.042
  C     -314.835    -349.856     221.093
  O     -313.941    -350.919     221.293
  C     -314.736    -349.088     219.774
  N     -313.561    -348.230     219.683
  C     -312.625    -348.530     218.703
  O     -312.746    -349.452     217.895
  N     -311.515    -347.727     218.674
  C     -311.258    -346.684     219.514
  O     -310.258    -345.982     219.429
  C     -312.270    -346.436     220.552
  C     -313.357    -347.209     220.589
  O     -320.514    -347.133     221.844
  O     -319.843    -345.395     220.090
  H     -320.732    -345.067     220.318
  H     -314.099    -351.343     222.165
  H     -310.827    -347.929     217.964
  H     -312.085    -345.632     221.250
  H     -314.125    -347.058     221.341
  H     -314.743    -349.778     218.925
  H     -314.711    -349.182     221.946
  H     -316.696    -350.660     221.962
  H     -317.740    -349.361     219.704
  H     -318.435    -348.690     221.973
  H     -316.849    -347.929     222.260
  P     -317.475    -352.576     220.181
  C     -317.615    -353.133     217.664
  O     -317.282    -353.607     218.963
  O     -318.885    -352.106     220.338
  O     -317.015    -353.415     221.467
  H     -317.807    -353.746     221.933
  H     -317.444    -353.908     216.947
  H     -317.006    -352.286     217.426
  H     -318.646    -352.848     217.642

 6  7  8  9  10  11  12  13  14  15  16  27  31  32  33  34  35 0
 6-311+G(2d,p)
 ****
 36  37 0
 6-311+G(2d,p)
 ****
 1  2  3  4  5  17  18  19  20  21  22  23  24  25 0
 3-21G
 ****
 26  28  29  30  38  39  40  41  42  43  44  45 0
 3-21G
 ****


