%nproc=1
%NoSave
%Mem=1900MB
#P OB98/GEN NMR

erre ene a

0 1
  C     -274.146    -510.584     323.433
  O     -273.064    -509.676     323.419
  H     -273.751    -511.602     323.356
  H     -274.805    -510.399     322.583
  H     -274.704    -510.495     324.367
  P     -273.430    -508.120     323.566
  C     -272.606    -508.134     326.035
  O     -273.674    -507.863     325.132
  C     -272.343    -506.909     326.905
  O     -271.905    -505.811     326.070
  C     -273.575    -506.391     327.643
  O     -273.854    -507.152     328.804
  C     -273.156    -504.955     327.948
  O     -272.344    -504.881     329.127
  C     -272.322    -504.587     326.715
  N     -272.795    -499.876     324.824
  C     -271.918    -500.413     325.701
  N     -271.847    -501.689     326.136
  C     -272.807    -502.436     325.570
  C     -273.778    -502.025     324.666
  C     -273.747    -500.674     324.288
  N     -274.663    -500.115     323.428
  N     -274.615    -503.074     324.347
  C     -274.156    -504.102     325.032
  N     -273.065    -503.762     325.779
  O     -274.898    -508.035     322.933
  O     -272.478    -507.177     322.906
  H     -271.525    -505.382     328.935
  H     -274.835    -507.775     321.997
  H     -271.175    -499.731     326.100
  H     -274.586    -505.094     325.028
  H     -271.412    -504.035     326.979
  H     -274.025    -504.316     328.108
  H     -274.440    -506.374     326.973
  H     -271.539    -507.146     327.609
  H     -271.703    -508.369     325.463
  H     -272.874    -508.996     326.653
  H     -274.596    -499.134     323.220
  H     -275.441    -500.678     323.106
  P     -275.360    -507.640     329.057
  C     -274.976    -509.727     327.545
  O     -275.778    -508.584     327.822
  O     -276.221    -506.310     328.819
  O     -275.608    -508.232     330.399
  H     -276.462    -505.904     329.674
  H     -275.378    -510.249     326.702
  H     -274.971    -510.374     328.397
  H     -273.975    -509.416     327.328

 6  7  8  9  10  11  12  13  14  15  25  28  32  33  34  35 0
 6-311+G(2d,p)
 ****
 36  37  40 0
 6-311+G(2d,p)
 ****
 1  2  3  4  5  16  17  18  19  20  21  22  23  24 0
 3-21G
 ****
 26  27  29  30  31  38  39 41  42  43  44  45  46  47  48 0
 3-21G
 ****


