%nproc=1
%NoSave
%Mem=1900MB
#P OB98/GEN NMR

erre ene a

0 1
  C       85.685      55.740     125.878
  O       84.697      54.824     126.325
  P       84.993      53.998     127.671
  C       85.507      51.712     126.530
  O       84.635      52.466     127.357
  C       84.933      50.317     126.277
  O       85.003      49.556     127.511
  C       83.471      50.297     125.815
  O       83.322      49.167     124.945
  C       82.708      50.050     127.103
  O       81.406      49.519     126.879
  C       83.666      49.107     127.823
  N       82.399      46.340     131.863
  C       82.397      46.001     130.522
  N       82.067      44.725     130.227
  N       82.694      46.835     129.560
  C       83.020      48.071     130.010
  C       83.020      48.537     131.302
  C       82.728      47.595     132.359
  O       82.803      47.829     133.563
  N       83.319      49.873     131.355
  C       83.577      50.194     130.104
  N       83.455      49.124     129.258
  O       83.817      54.471     128.644
  O       86.350      54.198     128.269
  H       81.073      49.174     127.731
  H       84.104      55.214     129.210
  H       82.181      45.649     132.561
  H       83.861      51.172     129.753
  H       83.566      48.067     127.485
  H       82.596      50.993     127.652
  H       81.858      44.022     130.919
  H       83.160      51.213     125.308
  H       82.090      44.441     129.255
  H       85.572      49.809     125.544
  H       86.470      51.606     127.039
  H       85.670      52.243     125.589
  P       83.310      49.434     123.365
  C       80.816      48.819     123.037
  O       82.162      48.520     122.729
  O       84.661      48.722     122.874
  O       83.298      50.875     122.972
  H       85.025      49.203     122.108
  H       80.174      48.404     122.256
  H       80.645      49.898     123.097
  H       80.551      48.357     123.993
  H       85.352      56.213     124.978
  H       86.598      55.215     125.689
  H       85.850      56.482     126.631

 3  4  5  6  7  8  9  10  11  12  23  26  30  31 0
 6-311+G(2d,p)
 ****
 33  35  36  37  38 0
 6-311+G(2d,p)
 ****
 1  2  13  14  15  16  17  18  19  20  21  22  24  25 0
 3-21G
 ****
 27  28  29  32  34  39  40  41  42  43  44  45  46  47  48  49 0
 3-21G
 ****


