%nproc=1
%NoSave
%Mem=1900MB
#P OB98/GEN NMR

erre ene a

0 1
  C      -25.373    -119.633    -499.558
  O      -25.894    -118.756    -500.534
  H      -24.702    -119.061    -498.908
  H      -24.796    -120.434    -500.024
  H      -26.180    -120.053    -498.952
  P      -26.760    -119.369    -501.747
  C      -26.241    -119.832    -504.216
  O      -25.685    -119.646    -502.925
  C      -25.150    -120.089    -505.268
  O      -24.371    -118.878    -505.461
  C      -24.172    -121.209    -504.881
  O      -23.989    -122.078    -505.999
  C      -22.879    -120.467    -504.562
  O      -21.731    -121.298    -504.719
  C      -22.981    -119.269    -505.516
  N      -22.095    -118.172    -505.148
  C      -20.959    -117.991    -505.944
  O      -20.726    -118.765    -506.871
  N      -20.097    -116.965    -505.647
  C      -20.309    -116.219    -504.605
  N      -19.415    -115.230    -504.356
  C      -21.484    -116.403    -503.704
  C      -22.328    -117.383    -504.043
  O      -27.931    -118.546    -502.151
  O      -27.143    -120.845    -501.261
  H      -21.675    -121.563    -505.677
  H      -27.920    -121.169    -501.781
  H      -21.617    -115.757    -502.853
  H      -23.206    -117.581    -503.450
  H      -22.758    -119.574    -506.549
  H      -22.910    -120.118    -503.516
  H      -24.512    -121.803    -504.034
  H      -25.633    -120.292    -506.231
  H      -18.628    -115.140    -504.994
  H      -26.823    -118.938    -504.483
  H      -19.483    -114.590    -503.574
  H      -26.911    -120.700    -504.182
  P      -24.620    -123.552    -505.869
  C      -24.448    -125.512    -504.177
  O      -23.873    -124.298    -504.655
  O      -24.068    -124.303    -507.173
  O      -26.114    -123.554    -505.804
  H      -24.766    -124.330    -507.860
  H      -23.853    -125.897    -503.375
  H      -24.482    -126.228    -504.972
  H      -25.441    -125.322    -503.825

 6  7  8  9  10  11  12  13  14  15  16  26  30  31  32  33  35 0
 6-311+G(2d,p)
 ****
 37  38 0
 6-311+G(2d,p)
 ****
 1  2  3  4  5  17  18  19  20  21  22  23  24  25 0
 3-21G
 ****
 27  28  29  34  36  39  40  41  42  43  44  45  46 0
 3-21G
 ****


