%nproc=1
%NoSave
%Mem=1900MB
#P OB98/GEN NMR

erre ene a

0 1
  C       52.654      -7.281      44.801
  O       51.843      -6.558      45.729
  P       50.689      -5.639      45.096
  C       48.379      -6.145      44.028
  O       49.356      -6.525      44.985
  C       47.045      -6.838      44.312
  O       47.130      -8.269      44.174
  C       46.521      -6.585      45.719
  O       45.908      -5.309      45.787
  C       45.537      -7.733      45.895
  O       44.253      -7.416      45.318
  C       46.207      -8.876      45.115
  N       45.740     -12.454      48.674
  C       44.803     -11.563      48.185
  N       43.559     -11.657      48.699
  N       45.064     -10.665      47.271
  C       46.348     -10.687      46.846
  C       47.358     -11.537      47.234
  C       47.058     -12.525      48.248
  O       47.846     -13.349      48.697
  N       48.513     -11.296      46.534
  C       48.234     -10.221      45.820
  N       46.915      -9.851      45.924
  O       51.158      -5.452      43.578
  O       50.528      -4.326      45.787
  H       43.886      -6.636      45.771
  H       51.442      -4.531      43.430
  H       45.487     -13.119      49.383
  H       48.937      -9.692      45.195
  H       45.476      -9.443      44.526
  H       45.353      -7.954      46.949
  H       43.288     -12.327      49.402
  H       47.337      -6.674      46.447
  H       42.856     -11.019      48.348
  H       46.320      -6.469      43.575
  H       48.721      -6.401      43.024
  H       48.266      -5.056      44.054
  P       46.802      -4.074      46.280
  C       48.121      -2.163      45.123
  O       47.435      -3.391      44.980
  O       48.049      -4.788      46.988
  O       46.109      -3.145      47.220
  H       48.249      -4.337      47.829
  H       48.894      -2.100      44.354
  H       48.591      -2.074      46.106
  H       47.416      -1.340      44.985
  H       53.383      -7.854      45.335
  H       53.150      -6.593      44.149
  H       52.037      -7.938      44.224

 3  4  5  6  7  8  9  10  11  12  23  26  30  31 0
 6-311+G(2d,p)
 ****
 33  35  36  37  38 0
 6-311+G(2d,p)
 ****
 1  2  13  14  15  16  17  18  19  20  21  22  24  25 0
 3-21G
 ****
 27  28  29  32  34  39  40  41  42  43  44  45  46  47  48  49 0
 3-21G
 ****


