%nproc=1
%NoSave
%Mem=1900MB
#P OB98/GEN NMR

erre ene a

0 1
  C     -619.803    -896.160    -412.584
  O     -620.712    -895.510    -413.467
  P     -622.229    -896.010    -413.589
  C     -623.681    -893.940    -413.217
  O     -623.151    -895.120    -412.610
  C     -624.701    -893.200    -412.312
  O     -625.807    -894.060    -411.971
  C     -624.108    -892.690    -410.959
  O     -624.802    -891.480    -410.687
  C     -624.493    -893.780    -409.988
  O     -624.436    -893.360    -408.632
  C     -625.874    -894.160    -410.516
  N     -626.274    -895.510    -410.098
  C     -626.714    -895.670    -408.768
  O     -626.685    -894.700    -408.007
  N     -627.109    -896.900    -408.332
  C     -626.987    -897.930    -409.154
  N     -627.395    -899.140    -408.659
  C     -626.475    -897.820    -410.527
  C     -626.147    -896.600    -410.927
  O     -622.417    -897.490    -413.455
  O     -622.674    -895.530    -415.060
  H     -624.674    -894.130    -408.062
  H     -623.335    -896.140    -415.413
  H     -626.392    -898.690    -411.135
  H     -625.763    -896.430    -411.912
  H     -626.621    -893.450    -410.172
  H     -623.785    -894.640    -410.115
  H     -623.019    -892.510    -411.002
  H     -625.076    -892.360    -412.877
  H     -627.701    -899.170    -407.699
  H     -624.177    -894.220    -414.143
  H     -627.216    -900.000    -409.134
  H     -622.855    -893.260    -413.452
  P     -624.288    -890.030    -411.207
  C     -626.360    -889.630    -412.632
  O     -624.979    -889.810    -412.625
  O     -622.799    -889.870    -411.178
  O     -625.021    -888.970    -410.278
  H     -624.560    -888.120    -410.297
  H     -626.690    -889.250    -413.601
  H     -626.698    -888.930    -411.858
  H     -626.868    -890.600    -412.456
  H     -618.846    -895.685    -412.644
  H     -619.708    -897.189    -412.863
  H     -620.172    -896.095    -411.582

 3  4  5  6  7  8  9  10  11  12  13  23  27  28  29  30  32 0
 6-311+G(2d,p)
 ****
 34  35 0
 6-311+G(2d,p)
 ****
 1  2  14  15  16  17  18  19  20  21  22  24  25  26 0
 3-21G
 ****
 31  33  36  37  38  39  40  41  42  43  44  45  46 0
 3-21G
 ****


