%nproc=1
%NoSave
%Mem=1900MB
#P OB98/GEN NMR

erre ene a

0 1
  C      -37.643     -49.023     138.074
  O      -36.761     -48.032     137.582
  H      -37.221     -50.007     137.849
  H      -38.622     -48.945     137.597
  H      -37.748     -48.928     139.158
  P      -37.217     -46.494     137.638
  C      -38.094     -46.473     135.214
  O      -38.426     -46.340     136.590
  C      -39.100     -45.721     134.339
  O      -40.409     -46.332     134.511
  C      -39.223     -44.230     134.682
  O      -39.407     -43.500     133.465
  C      -40.479     -44.188     135.528
  O      -41.072     -42.903     135.516
  C      -41.333     -45.301     134.909
  N      -42.330     -45.795     135.859
  C      -43.595     -46.091     135.337
  O      -43.820     -45.949     134.132
  N      -44.594     -46.482     136.193
  C      -44.371     -46.516     137.472
  N      -45.417     -46.871     138.270
  C      -43.059     -46.183     138.070
  C      -42.093     -45.840     137.217
  O      -36.131     -45.478     137.493
  O      -37.951     -46.371     139.057
  H      -40.402     -42.232     135.776
  H      -37.310     -46.106     139.744
  H      -42.925     -46.223     139.141
  H      -41.101     -45.566     137.566
  H      -41.850     -44.942     134.010
  H      -40.231     -44.434     136.569
  H      -38.351     -43.842     135.221
  H      -38.818     -45.859     133.287
  H      -46.302     -47.065     137.816
  H      -38.115     -47.543     134.964
  H      -45.372     -46.894     139.280
  H      -37.084     -46.089     135.037
  P      -38.168     -43.221     132.483
  C      -38.177     -40.674     132.765
  O      -37.422     -41.870     132.942
  O      -38.503     -43.277     131.022
  O      -37.115     -44.373     132.861
  H      -36.587     -44.598     132.069
  H      -37.600     -39.836     133.097
  H      -39.080     -40.734     133.336
  H      -38.418     -40.554     131.729

 6  7  8  9  10  11  12  13  14  15  16  26  30  31  32  33  35 0
 6-311+G(2d,p)
 ****
 37  38 0
 6-311+G(2d,p)
 ****
 1  2  3  4  5  17  18  19  20  21  22  23  24  25 0
 3-21G
 ****
 27  28  29  34  36  39  40  41  42  43  44  45  46 0
 3-21G
 ****


