%nproc=1
%NoSave
%Mem=1900MB
#P OB98/GEN NMR

erre ene a

0 1
  C     -114.289     -23.316     -77.177
  O     -112.936     -23.215     -77.571
  H     -114.800     -22.388     -77.442
  H     -114.367     -23.461     -76.095
  H     -114.776     -24.143     -77.700
  P     -111.939     -24.412     -77.184
  C     -111.208     -23.346     -74.938
  O     -111.913     -24.400     -75.576
  C     -112.036     -22.777     -73.789
  O     -113.293     -22.255     -74.265
  C     -112.418     -23.787     -72.711
  O     -111.340     -24.145     -71.864
  C     -113.496     -23.001     -71.983
  O     -112.883     -21.998     -71.153
  C     -114.249     -22.352     -73.171
  N     -115.425     -23.114     -73.585
  C     -116.649     -22.432     -73.575
  O     -116.705     -21.251     -73.230
  N     -117.790     -23.115     -73.920
  C     -117.720     -24.372     -74.229
  N     -118.887     -25.014     -74.517
  C     -116.451     -25.124     -74.270
  C     -115.357     -24.444     -73.935
  O     -110.598     -24.396     -77.845
  O     -112.778     -25.742     -77.482
  H     -113.597     -21.424     -70.825
  H     -112.199     -26.514     -77.269
  H     -116.449     -26.173     -74.526
  H     -114.389     -24.932     -73.925
  H     -114.558     -21.330     -72.923
  H     -114.121     -23.622     -71.335
  H     -112.876     -24.677     -73.156
  H     -111.477     -21.931     -73.367
  H     -119.740     -24.478     -74.438
  H     -110.993     -22.577     -75.686
  H     -118.951     -26.027     -74.492
  H     -110.263     -23.719     -74.530
  P     -111.502     -25.460     -70.955
  C     -112.098     -23.960     -68.911
  O     -112.458     -25.059     -69.731
  O     -110.061     -25.604     -70.279
  O     -111.924     -26.699     -71.680
  H     -109.489     -26.206     -70.794
  H     -112.836     -23.828     -68.148
  H     -112.039     -23.074     -69.508
  H     -111.147     -24.149     -68.459

 6  7  8  9  10  11  12  13  14  15  16  26  30  31  32  33  35 0
 6-311+G(2d,p)
 ****
 37  38 0
 6-311+G(2d,p)
 ****
 1  2  3  4  5  17  18  19  20  21  22  23  24  25 0
 3-21G
 ****
 27  28  29  34  36  39  40  41  42  43  44  45  46 0
 3-21G
 ****


