%nproc=1
%NoSave
%Mem=1900MB
#P OB98/GEN NMR

erre ene a

0 1
  C      -14.186     505.325    -558.509
  O      -14.371     506.308    -557.501
  H      -13.811     505.812    -559.414
  H      -15.140     504.842    -558.738
  H      -13.460     504.576    -558.185
  P      -14.693     505.761    -556.029
  C      -12.123     505.604    -555.505
  O      -13.392     504.960    -555.517
  C      -11.760     506.011    -554.076
  O      -11.568     504.857    -553.240
  C      -10.447     506.762    -553.953
  O      -10.525     508.086    -554.440
  C      -10.209     506.680    -552.453
  O      -10.903     507.721    -551.752
  C      -10.796     505.294    -552.096
  N       -9.754     504.351    -551.731
  C       -9.235     504.516    -550.431
  O       -9.668     505.402    -549.700
  N       -8.211     503.693    -550.037
  C       -7.731     502.811    -550.849
  N       -6.691     502.051    -550.406
  C       -8.256     502.598    -552.223
  C       -9.261     503.402    -552.587
  O      -15.752     504.600    -556.310
  O      -15.172     506.802    -555.068
  H      -10.685     507.621    -550.804
  H      -15.478     503.981    -557.013
  H       -7.829     501.840    -552.855
  H       -9.708     503.318    -553.580
  H      -11.507     505.371    -551.260
  H       -9.148     506.790    -552.204
  H       -9.642     506.199    -554.450
  H      -12.595     506.601    -553.664
  H       -6.320     502.260    -549.478
  H      -12.131     506.487    -556.159
  H       -6.188     501.392    -550.981
  H      -11.385     504.901    -555.899
  P       -9.206     508.908    -554.835
  C       -9.426     508.657    -557.393
  O       -8.686     508.304    -556.234
  O       -8.165     508.996    -553.763
  O       -9.792     510.336    -555.295
  H      -10.418     510.300    -556.046
  H       -8.984     508.197    -558.252
  H       -9.415     509.720    -557.513
  H      -10.436     508.320    -557.288

 6  7  8  9  10  11  12  13  14  15  16  26  30  31  32  33  35 0
 6-311+G(2d,p)
 ****
 37  38 0
 6-311+G(2d,p)
 ****
 1  2  3  4  5  17  18  19  20  21  22  23  24  25 0
 3-21G
 ****
 27  28  29  34  36  39  40  41  42  43  44  45  46 0
 3-21G
 ****


