%nproc=1
%NoSave
%Mem=1900MB
#P OB98/GEN NMR

erre ene a

0 1
  C      -70.731     220.840     513.116
  O      -71.415     221.332     511.964
  P      -71.734     220.334     510.754
  C      -70.543     219.458     508.638
  O      -70.398     220.118     509.889
  C      -69.276     219.617     507.781
  O      -69.213     220.969     507.245
  C      -67.983     219.361     508.566
  O      -67.110     218.428     507.921
  C      -67.421     220.752     508.791
  O      -66.015     220.757     509.020
  C      -67.923     221.521     507.565
  N      -67.985     222.967     507.812
  C      -66.796     223.669     507.726
  O      -65.702     223.126     507.528
  N      -66.873     225.022     507.931
  C      -67.994     225.708     508.283
  O      -68.008     226.917     508.505
  C      -69.221     224.910     508.424
  C      -69.160     223.592     508.185
  O      -72.959     220.648     509.955
  O      -71.895     218.914     511.492
  H      -65.582     220.308     508.266
  H      -72.620     218.430     511.054
  H      -66.010     225.546     507.852
  H      -70.123     225.413     508.729
  H      -70.041     222.974     508.297
  H      -67.258     221.370     506.704
  H      -67.892     221.174     509.689
  H      -68.191     218.897     509.538
  H      -69.357     218.916     506.943
  H      -71.389     219.887     508.098
  H      -70.789     218.403     508.807
  P      -66.716     216.993     508.511
  C      -64.734     215.985     509.836
  O      -65.380     217.153     509.372
  O      -66.707     215.872     507.529
  O      -67.848     216.737     509.624
  H      -68.123     215.808     509.594
  H      -64.088     216.250     510.679
  H      -64.112     215.571     509.038
  H      -65.459     215.232     510.164
  H      -70.602     221.635     513.821
  H      -69.773     220.460     512.827
  H      -71.305     220.056     513.564

 3  4  5  6  7  8  9  10  11  12  13  23  28  29  30  31  32 0
 6-311+G(2d,p)
 ****
 33  34 0
 6-311+G(2d,p)
 ****
 1  2  14  15  16  17  18  19  20  21  22  24  25  26  27 0
 3-21G
 ****
 35  36  37  38  39  40  41  42  43  44  45 0
 3-21G
 ****


