%nproc=1
%NoSave
%Mem=1900MB
#P OB98/GEN NMR

erre ene a

0 1
  C      -44.364     428.167    -602.034
  O      -44.820     428.369    -603.364
  P      -46.357     428.812    -603.559
  C      -46.814     426.726    -605.033
  O      -47.161     427.458    -603.863
  C      -47.816     425.601    -605.279
  O      -47.707     424.619    -604.244
  C      -49.280     426.034    -605.273
  O      -49.667     426.615    -606.502
  C      -49.975     424.711    -605.030
  O      -50.102     424.005    -606.279
  C      -49.002     423.983    -604.094
  N      -51.002     421.393    -600.222
  C      -50.754     420.999    -601.521
  N      -51.049     419.717    -601.829
  N      -50.250     421.784    -602.443
  C      -49.966     423.025    -601.985
  C      -50.168     423.538    -600.726
  C      -50.766     422.676    -599.729
  O      -51.070     423.003    -598.584
  N      -49.736     424.834    -600.641
  C      -49.230     425.091    -601.829
  N      -49.375     424.032    -602.687
  O      -46.340     429.553    -604.983
  O      -46.908     429.682    -602.486
  H      -50.454     423.117    -606.078
  H      -47.077     430.189    -605.034
  H      -51.370     420.750    -599.561
  H      -48.759     426.025    -602.115
  H      -48.879     422.931    -604.386
  H      -50.989     424.827    -604.628
  H      -51.322     419.025    -601.126
  H      -49.476     426.715    -604.422
  H      -50.833     419.394    -602.764
  H      -47.569     425.125    -606.230
  H      -45.820     426.294    -604.921
  H      -46.805     427.419    -605.883
  P      -50.961     427.575    -606.465
  C      -52.096     425.970    -608.164
  O      -52.191     426.652    -606.931
  O      -50.724     428.550    -607.707
  O      -51.140     428.320    -605.187
  H      -51.187     429.407    -607.564
  H      -51.075     425.627    -608.369
  H      -52.426     426.638    -608.974
  H      -52.758     425.100    -608.143
  H      -43.334     427.878    -602.050
  H      -44.943     427.395    -601.572
  H      -44.471     429.075    -601.478

 3  4  5  6  7  8  9  10  11  12  23  26  30  31  33  0
 6-311+G(2d,p)
 ****
 35  36  37  38 0
 6-311+G(2d,p)
 ****
 1  2  13  14  15  16  17  18  19  20  21  22  24  25  27  28  29 0
 3-21G
 ****
 32  34  39  40  41  42  43  44  45  46  47  48  49 0
 3-21G
 ****


