%nproc=1
%NoSave
%Mem=1900MB
#P OB98/GEN NMR

erre ene a

0 1
  C     -352.072     227.183     349.349
  O     -350.665     227.103     349.084
  P     -349.643     228.310     349.350
  C     -349.366     229.129     346.908
  O     -349.870     229.419     348.206
  C     -349.934     230.103     345.869
  O     -349.547     231.461     346.196
  C     -349.436     229.905     344.448
  O     -350.005     228.762     343.830
  C     -349.834     231.231     343.804
  O     -351.199     231.211     343.371
  C     -349.673     232.224     344.976
  N     -348.541     233.124     344.800
  C     -348.812     234.498     344.873
  O     -349.970     234.897     345.002
  N     -347.759     235.376     344.790
  C     -346.565     234.931     344.546
  N     -345.564     235.846     344.490
  C     -346.263     233.504     344.322
  C     -347.284     232.669     344.463
  O     -348.216     227.884     349.492
  O     -350.166     229.022     350.689
  H     -349.421     229.466     351.134
  H     -351.747     230.998     344.151
  H     -345.257     233.181     344.075
  H     -347.151     231.596     344.332
  H     -350.583     232.817     345.095
  H     -349.219     231.469     342.933
  H     -348.343     229.817     344.456
  H     -351.036     230.037     345.910
  H     -345.799     236.818     344.656
  H     -349.674     228.107     346.638
  H     -344.593     235.606     344.328
  H     -348.271     229.171     346.929
  P     -349.024     227.522     343.558
  C     -348.149     228.612     341.368
  O     -347.829     228.047     342.628
  O     -349.886     226.575     342.580
  O     -348.595     226.790     344.780
  H     -349.727     225.644     342.817
  H     -347.358     229.324     341.096
  H     -349.107     229.138     341.392
  H     -348.186     227.822     340.610
  H     -352.537     226.255     349.091
  H     -352.501     227.971     348.766
  H     -352.228     227.383     350.388

 3  4  5  6  7  8  9  10  11  12  13  24  27  28  29  30  32 0
 6-311+G(2d,p)
 ****
 34  35 0
 6-311+G(2d,p)
 ****
 1  2  14  15  16  17  18  19  20  21  22  23  25  26 0
 3-21G
 ****
 31  33  36  37  38  39  40  41  42  43  44  45  46 0
 3-21G
 ****


