%nproc=1
%NoSave
%Mem=1900MB
#P OB98/GEN NMR

erre ene a

0 1
  C      318.972    -280.725     355.829
  O      317.549    -280.724     355.691
  P      316.950    -280.750     354.203
  C      315.025    -279.120     354.865
  O      315.396    -280.362     354.272
  C      313.503    -278.975     354.878
  O      312.980    -278.865     353.540
  C      312.792    -280.171     355.490
  O      312.861    -280.129     356.904
  C      311.379    -280.012     354.940
  O      310.552    -279.219     355.805
  C      311.608    -279.297     353.587
  N      311.279    -280.138     352.444
  C      310.042    -279.883     351.833
  O      309.297    -279.016     352.284
  N      309.681    -280.646     350.750
  C      310.466    -281.587     350.330
  N      310.052    -282.309     349.256
  C      311.767    -281.904     350.965
  C      312.101    -281.150     352.004
  O      316.925    -282.309     353.845
  O      317.756    -279.969     353.212
  H      309.625    -279.409     355.538
  H      317.083    -282.444     352.890
  H      312.383    -282.703     350.580
  H      313.038    -281.309     352.533
  H      310.988    -278.392     353.525
  H      310.879    -280.983     354.838
  H      313.233    -281.105     355.111
  H      313.245    -278.061     355.432
  H      309.156    -282.070     348.850
  H      315.478    -278.292     354.320
  H      310.581    -283.071     348.850
  H      315.432    -279.085     355.880
  P      313.047    -281.511     357.679
  C      311.612    -281.302     359.805
  O      312.901    -281.136     359.235
  O      314.626    -281.763     357.556
  O      312.255    -282.679     357.205
  H      314.857    -282.641     357.914
  H      311.698    -281.212     360.893
  H      311.207    -282.285     359.562
  H      310.944    -280.512     359.442
  H      319.230    -280.706     356.867
  H      319.378    -279.861     355.345
  H      319.373    -281.608     355.378

 3  4  5  6  7  8  9  10  11  12  13  21  23  27  28  29  30  32 0
 6-311+G(2d,p)
 ****
 34  35 0
 6-311+G(2d,p)
 ****
 1  2  14  15  16  17  18  19  20  22  24  25  26 0
 3-21G
 ****
 31  33  36  37  38  39  40  41  42  43  44  45  46 0
 3-21G
 ****


