%nproc=1
%NoSave
%Mem=1900MB
#P OB98/GEN NMR

erre ene a

0 1
  C      193.855     -14.831    -230.947
  O      194.253     -16.172    -231.136
  H      194.618     -14.286    -230.387
  H      193.732     -14.358    -231.925
  H      192.902     -14.791    -230.414
  P      194.527     -17.039    -229.815
  C      192.155     -17.815    -229.114
  O      193.379     -18.164    -229.745
  C      191.073     -18.828    -229.484
  O      190.029     -18.768    -228.480
  C      190.424     -18.598    -230.860
  O      190.580     -19.759    -231.681
  C      188.944     -18.418    -230.557
  O      188.094     -19.064    -231.502
  C      188.794     -19.017    -229.163
  N      184.085     -19.868    -227.414
  C      185.087     -20.717    -227.733
  N      186.352     -20.424    -228.092
  C      186.555     -19.095    -228.077
  C      185.640     -18.109    -227.750
  C      184.343     -18.539    -227.423
  N      183.308     -17.672    -227.152
  N      186.213     -16.854    -227.860
  C      187.438     -17.080    -228.287
  N      187.684     -18.417    -228.451
  O      194.138     -16.034    -228.630
  O      195.921     -17.551    -229.670
  H      188.380     -18.764    -232.386
  H      194.844     -16.035    -227.955
  H      184.835     -21.773    -227.706
  H      188.167     -16.319    -228.535
  H      188.636     -20.102    -229.195
  H      188.710     -17.347    -230.556
  H      190.829     -17.721    -231.377
  H      191.511     -19.832    -229.435
  H      191.839     -16.821    -229.448
  H      182.387     -18.063    -227.042
  H      183.467     -16.682    -227.264
  H      192.307     -17.787    -228.030
  P      191.124     -19.517    -233.177
  C      193.720     -19.552    -232.991
  O      192.535     -20.273    -233.299
  O      191.536     -17.970    -233.162
  O      190.126     -19.822    -234.241
  H      191.477     -17.600    -234.062
  H      194.569     -20.190    -233.120
  H      193.678     -19.214    -231.977
  H      193.805     -18.709    -233.645

 6  7  8  9  10  11  12  13  14  15  25  28  32  33  34  35 0
 6-311+G(2d,p)
 ****
 36  39  40 0
 6-311+G(2d,p)
 ****
 1  2  3  4  5  16  17  18  19  20  21  22  23  24 0
 3-21G
 ****
 26  27  29  30  31  37  38  41  42  43  44  45  46  47  48 0
 3-21G
 ****


