%nproc=1
%NoSave
%Mem=1900MB
#P OB98/GEN NMR

erre ene a

0 1
  C      172.572      31.794    -129.027
  O      172.153      30.598    -129.662
  P      170.685      30.035    -129.341
  C      171.566      28.495    -127.401
  O      170.704      29.542    -127.814
  C      171.192      28.022    -125.991
  O      172.055      26.910    -125.626
  C      171.337      29.095    -124.902
  O      170.290      28.875    -123.946
  C      172.690      28.775    -124.293
  O      172.835      29.291    -122.978
  C      172.685      27.243    -124.369
  N      174.020      26.649    -124.294
  C      174.793      26.921    -123.169
  O      174.424      27.651    -122.243
  N      176.039      26.347    -123.147
  C      176.598      25.600    -124.139
  O      177.725      25.124    -124.072
  C      175.756      25.383    -125.324
  C      174.524      25.903    -125.345
  O      170.681      28.681    -130.190
  O      169.591      30.993    -129.673
  H      171.547      28.239    -130.202
  H      173.738      29.085    -122.672
  H      176.600      26.502    -122.320
  H      176.173      24.808    -126.145
  H      173.885      25.755    -126.207
  H      172.052      26.828    -123.574
  H      173.481      29.204    -124.917
  H      171.270      30.113    -125.302
  H      170.162      27.640    -126.019
  H      172.594      28.857    -127.396
  H      171.500      27.669    -128.121
  P      169.714      30.148    -123.148
  C      170.762      29.280    -120.908
  O      170.610      30.333    -121.833
  O      168.351      29.522    -122.565
  O      169.477      31.367    -123.981
  H      168.485      28.655    -122.143
  H      171.644      29.477    -120.290
  H      170.898      28.322    -121.415
  H      169.883      29.232    -120.258
  H      173.566      32.036    -129.342
  H      172.557      31.658    -127.966
  H      171.909      32.591    -129.294

 3  4  5  6  7  8  9  10  11  12  13  24  28  29  30  31  32 0
 6-311+G(2d,p)
 ****
 33  34 0
 6-311+G(2d,p)
 ****
 1  2  14  15  16  17  18  19  20  21  22  23  25  26  27 0
 3-21G
 ****
 35  36  37  38  39  40  41  42  43  44  45 0
 3-21G
 ****


