%nproc=1
%NoSave
%Mem=1900MB
#P OB98/GEN NMR

erre ene a

0 1
  C      302.486     237.008      81.438
  O      302.451     238.078      82.382
  P      301.990     237.783      83.886
  C      301.005     240.137      84.259
  O      301.945     239.166      84.699
  C      301.200     241.470      85.001
  O      301.257     241.230      86.436
  C      302.490     242.201      84.595
  O      302.272     243.565      84.238
  C      303.417     241.962      85.771
  O      304.441     242.941      85.878
  C      302.447     241.849      86.954
  N      303.025     241.097      88.070
  C      304.127     241.657      88.702
  O      304.665     242.699      88.316
  N      304.638     240.958      89.759
  C      304.210     239.736      90.187
  O      304.732     239.124      91.109
  C      303.081     239.157      89.439
  C      302.550     239.851      88.430
  O      302.703     236.670      84.578
  O      300.428     237.436      83.720
  H      304.998     242.723      86.660
  H      300.215     236.714      84.341
  H      305.427     241.364      90.240
  H      302.732     238.178      89.735
  H      301.730     239.447      87.857
  H      302.178     242.841      87.334
  H      303.913     240.994      85.630
  H      302.929     241.758      83.693
  H      300.327     242.093      84.788
  H      299.993     239.774      84.446
  H      301.091     240.262      83.175
  P      302.316     244.128      82.743
  C      302.603     246.659      83.232
  O      301.758     245.630      82.755
  O      301.715     243.244      81.698
  O      303.884     244.319      82.474
  H      304.089     244.044      81.562
  H      301.985     247.512      83.520
  H      303.282     246.969      82.433
  H      303.179     246.331      84.097
  H      302.814     237.380      80.490
  H      301.507     236.589      81.337
  H      303.163     236.253      81.779

 3  4  5  6  7  8  9  10  11  12  13  23  28  29  30  31  32 0
 6-311+G(2d,p)
 ****
 33  34 0
 6-311+G(2d,p)
 ****
 1  2  14  15  16  17  18  19  20  21  22  24  25  26  27 0
 3-21G
 ****
 35  36  37  38  39  40  41  42  43  44  45 0
 3-21G
 ****


