%nproc=1
%NoSave
%Mem=1900MB
#P OB98/GEN NMR

erre ene a

0 1
  C      -56.945     248.071     390.075
  O      -57.193     249.306     389.446
  P      -58.398     249.568     388.436
  C      -56.903     249.543     386.289
  O      -57.808     250.262     387.110
  C      -57.233     249.741     384.801
  O      -56.254     249.022     384.009
  C      -58.615     249.156     384.451
  O      -59.380     249.966     383.569
  C      -58.277     247.748     383.986
  O      -59.290     247.147     383.191
  C      -56.929     247.957     383.293
  N      -56.376     243.142     381.774
  C      -57.334     244.066     381.404
  N      -58.369     243.591     380.679
  N      -57.290     245.330     381.742
  C      -56.255     245.634     382.562
  C      -55.246     244.805     382.992
  C      -55.290     243.417     382.583
  O      -54.520     242.539     382.982
  N      -54.401     245.442     383.869
  C      -54.920     246.648     383.993
  N      -56.062     246.799     383.241
  O      -59.656     250.117     389.017
  O      -58.713     248.069     387.911
  H      -59.446     247.726     382.428
  H      -59.680     248.016     387.758
  H      -56.511     242.160     381.552
  H      -54.522     247.432     384.633
  H      -57.058     248.289     382.258
  H      -58.159     247.118     384.876
  H      -58.509     242.599     380.531
  H      -59.246     249.092     385.348
  H      -59.199     244.179     380.610
  H      -57.154     250.803     384.549
  H      -57.004     248.491     386.563
  H      -55.866     249.847     386.500
  P      -60.945     250.282     383.610
  C      -61.675     248.310     382.142
  O      -61.618     249.719     382.272
  O      -61.054     251.870     383.417
  O      -61.635     249.872     384.872
  H      -61.754     252.227     383.995
  H      -61.894     248.062     381.102
  H      -62.478     247.920     382.774
  H      -60.722     247.854     382.425
  H      -56.082     248.157     390.701
  H      -56.774     247.320     389.332
  H      -57.791     247.797     390.670

 3  4  5  6  7  8  9  10  11  12  23  26  30  31 0
 6-311+G(2d,p)
 ****
 33  35  36  37  38 0
 6-311+G(2d,p)
 ****
 1  2  13  14  15  16  17  18  19  20  21  22  24  25 0
 3-21G
 ****
 27  28  29  32  34  39  40  41  42  43  44  45  46  47  48  49 0
 3-21G
 ****


