%nproc=1
%NoSave
%Mem=1900MB
#P OB98/GEN NMR

erre ene a

0 1
  C     -315.142     -15.904    -291.980
  O     -315.819     -17.037    -291.462
  P     -315.260     -17.690    -290.104
  C     -314.450     -19.865    -291.281
  O     -314.102     -18.715    -290.531
  C     -313.897     -21.132    -290.614
  O     -312.447     -21.083    -290.662
  C     -314.293     -21.305    -289.137
  O     -314.395     -22.713    -288.896
  C     -313.091     -20.745    -288.393
  O     -313.005     -21.223    -287.054
  C     -311.960     -21.197    -289.307
  N     -307.215     -21.065    -287.540
  C     -308.176     -22.062    -287.437
  N     -307.788     -23.200    -286.827
  N     -309.394     -21.949    -287.893
  C     -309.630     -20.753    -288.491
  C     -308.780     -19.682    -288.616
  C     -307.423     -19.834    -288.143
  O     -306.516     -19.012    -288.292
  N     -309.405     -18.609    -289.201
  C     -310.608     -19.065    -289.503
  N     -310.772     -20.378    -289.129
  O     -316.466     -18.644    -289.645
  O     -314.858     -16.718    -289.035
  H     -312.958     -22.196    -287.086
  H     -317.054     -18.184    -289.015
  H     -306.285     -21.223    -287.189
  H     -311.390     -18.501    -289.991
  H     -311.665     -22.241    -289.132
  H     -313.162     -19.651    -288.356
  H     -306.853     -23.373    -286.480
  H     -315.230     -20.799    -288.875
  H     -308.462     -23.959    -286.770
  H     -314.216     -22.000    -291.201
  H     -314.013     -19.782    -292.281
  H     -315.540     -19.929    -291.384
  P     -315.597     -23.227    -287.967
  C     -314.023     -23.346    -285.909
  O     -315.238     -22.856    -286.453
  O     -315.416     -24.825    -288.004
  O     -316.962     -22.838    -288.430
  H     -316.290     -25.249    -287.931
  H     -313.734     -22.709    -285.067
  H     -313.223     -23.343    -286.649
  H     -314.178     -24.363    -285.545
  H     -315.623     -15.581    -292.880
  H     -314.125     -16.162    -292.192
  H     -315.166     -15.114    -291.259

 3  4  5  6  7  8  9  10  11  12  23  26  30  31 0
 6-311+G(2d,p)
 ****
 33  35  36  37  38 0
 6-311+G(2d,p)
 ****
 1  2  13  14  15  16  17  18  19  20  21  22  24  25 0
 3-21G
 ****
 27  28  29  32  34  39  40  41  42  43  44  45  46  47  48  49 0
 3-21G
 ****


