%nproc=1
%NoSave
%Mem=1900MB
#P OB98/GEN NMR

erre ene a

0 1
  C      230.373      49.228     -11.600
  O      231.495      49.225     -12.482
  P      231.277      49.709     -13.995
  C      232.524      51.946     -13.677
  O      232.467      50.712     -14.387
  C      233.755      52.761     -14.109
  O      233.633      54.109     -13.580
  C      235.096      52.232     -13.589
  O      235.791      51.268     -14.375
  C      235.944      53.501     -13.606
  O      236.467      53.721     -14.930
  C      234.950      54.605     -13.259
  N      236.908      57.981      -9.951
  C      237.033      57.851     -11.289
  N      236.479      56.923     -12.095
  C      235.714      56.074     -11.391
  C      235.490      56.084     -10.024
  C      236.130      57.093      -9.287
  N      236.012      57.219      -7.923
  N      234.655      55.049      -9.660
  C      234.396      54.415     -10.786
  N      235.001      55.003     -11.862
  O      229.904      50.176     -14.340
  O      231.656      48.395     -14.834
  H      236.941      52.906     -15.179
  H      231.059      48.328     -15.604
  H      237.664      58.589     -11.777
  H      233.779      53.531     -10.869
  H      235.110      55.512     -13.853
  H      236.807      53.435     -12.937
  H      234.998      51.865     -12.561
  H      233.777      52.826     -15.204
  H      232.572      51.749     -12.604
  H      236.540      57.945      -7.465
  H      235.484      56.532      -7.405
  H      231.588      52.473     -13.860
  P      236.454      49.970     -13.712
  C      234.416      48.349     -13.464
  O      235.558      48.733     -14.197
  O      236.657      50.047     -12.238
  O      237.798      49.794     -14.559
  H      237.658      49.536     -15.484
  H      233.834      47.644     -14.065
  H      233.790      49.215     -13.235
  H      234.720      47.854     -12.538
  H      230.677      48.881     -10.635
  H      229.613      48.582     -11.988
  H      229.987      50.223     -11.517

 3  4  5  6  7  8  9  10  11  12  22  25  29  30  31  32 0
 6-311+G(2d,p)
 ****
 33  36  37 0
 6-311+G(2d,p)
 ****
 1  2  13  14  15  16  17  18  19  20  21  23  24  26 0
 3-21G
 ****
 27  28  34  35  38  39  40  41  42  43  44  45  46  47  48 0
 3-21G
 ****


