%nproc=1
%NoSave
%Mem=1900MB
#P OB98/GEN NMR

erre ene a

0 1
  C      -89.749    -434.230    -893.420
  O      -89.717    -432.943    -892.850
  H      -90.492    -434.274    -894.220
  H      -88.764    -434.454    -893.850
  H      -89.978    -434.983    -892.660
  P      -91.070    -432.423    -892.160
  C      -93.568    -432.453    -892.870
  O      -92.214    -432.545    -893.280
  C      -94.373    -431.715    -893.940
  O      -94.056    -432.229    -895.270
  C      -95.887    -431.863    -893.800
  O      -96.424    -430.981    -892.830
  C      -96.343    -431.488    -895.200
  O      -96.287    -430.056    -895.360
  C      -95.258    -432.152    -896.060
  N      -97.942    -434.861    -899.490
  C      -97.805    -433.526    -899.300
  N      -97.074    -432.886    -898.370
  C      -96.444    -433.764    -897.570
  C      -96.494    -435.163    -897.640
  C      -97.279    -435.700    -898.670
  N      -97.429    -437.054    -898.850
  N      -95.738    -435.716    -896.630
  C      -95.211    -434.694    -895.990
  N      -95.618    -433.492    -896.500
  O      -90.844    -430.844    -892.040
  O      -91.411    -433.051    -890.850
  H      -95.391    -429.776    -895.080
  H      -91.440    -430.471    -891.360
  H      -98.346    -432.891    -900.000
  H      -94.551    -434.776    -895.130
  H      -95.026    -431.570    -896.960
  H      -97.362    -431.800    -895.420
  H      -96.169    -432.914    -893.590
  H      -94.086    -430.642    -893.910
  H      -93.632    -431.899    -891.940
  H      -98.161    -437.343    -899.500
  H      -97.062    -437.686    -898.150
  H      -93.972    -433.461    -892.730
  P      -97.717    -431.478    -892.030
  C     -100.030    -432.469    -892.710
  O      -98.785    -431.916    -893.150
  O      -98.335    -430.116    -891.440
  O      -97.456    -432.486    -890.950
  H      -98.847    -430.283    -890.630
  H     -100.633    -432.711    -893.560
  H     -100.543    -431.754    -892.101
  H      -99.845    -433.355    -892.140

 6  7  8  9  10  11  12  13  14  15  25  28  32  33  34  35 0
 6-311+G(2d,p)
 ****
 36  39  40 0
 6-311+G(2d,p)
 ****
 1  2  3  4  5  16  17  18  19  20  21  22  23  24 0
 3-21G
 ****
 26  27  29  30  31  37  38  41  42  43  44  45  46  47 0
 3-21G
 ****
 48 0
 3-21G
 ****


