%nproc=1
%NoSave
%Mem=1900MB
#P OB98/GEN NMR

erre ene a

0 1
  C      210.810      46.915      69.673
  O      209.596      47.444      70.164
  H      211.548      47.718      69.622
  H      210.664      46.509      68.668
  H      211.190      46.133      70.337
  P      208.403      46.437      70.528
  C      207.613      46.553      68.075
  O      207.976      45.713      69.164
  C      207.126      45.705      66.904
  O      208.226      44.969      66.328
  C      206.083      44.659      67.286
  O      204.816      45.259      67.485
  C      206.168      43.725      66.087
  O      205.428      44.250      64.976
  C      207.687      43.737      65.795
  N      208.388      42.579      66.343
  C      208.670      41.545      65.456
  O      208.323      41.564      64.274
  N      209.351      40.474      65.975
  C      209.693      40.307      67.287
  O      210.258      39.302      67.712
  C      209.341      41.414      68.188
  C      208.717      42.481      67.683
  O      207.273      47.024      71.307
  O      209.134      45.268      71.342
  H      205.762      43.793      64.178
  H      208.995      45.396      72.299
  H      209.552      39.712      65.348
  H      209.592      41.311      69.234
  H      208.442      43.305      68.333
  H      207.865      43.762      64.712
  H      205.760      42.734      66.297
  H      206.401      44.112      68.182
  H      206.734      46.383      66.132
  H      208.493      47.128      67.767
  H      206.832      47.244      68.407
  P      203.658      44.483      68.267
  C      202.554      43.631      66.118
  O      203.180      43.261      67.339
  O      202.550      45.339      68.783
  O      204.426      43.746      69.467
  H      204.236      44.203      70.310
  H      202.276      42.750      65.578
  H      203.235      44.210      65.529
  H      201.680      44.212      66.327

 6  7  8  9  10  11  12  13  14  15  16  26  31  32  33  34  35 0
 6-311+G(2d,p)
 ****
 36  37 0
 6-311+G(2d,p)
 ****
 1  2  3  4  5  17  18  19  20  21  22  23  24  25 0
 3-21G
 ****
 27  28  29  30  38  39  40  41  42  43  44  45 0
 3-21G
 ****


