%nproc=1
%NoSave
%Mem=1900MB
#P OB98/GEN NMR

erre ene a

0 1
  C     -258.457      40.941     233.858
  O     -258.219      40.713     235.253
  P     -256.739      40.527     235.846
  C     -256.624      42.802     237.051
  O     -256.612      41.386     237.197
  C     -256.983      43.505     238.364
  O     -258.407      43.487     238.581
  C     -256.357      42.879     239.608
  O     -255.002      43.266     239.734
  C     -257.284      43.404     240.702
  O     -256.922      44.749     241.064
  C     -258.648      43.385     239.996
  N     -260.420      40.386     243.740
  C     -259.698      41.528     243.763
  N     -259.257      42.268     242.723
  C     -259.660      41.729     241.557
  C     -260.401      40.567     241.379
  C     -260.785      39.879     242.541
  N     -261.509      38.708     242.513
  N     -260.598      40.318     240.037
  C     -260.007      41.322     239.420
  N     -259.426      42.200     240.293
  O     -255.646      40.780     234.859
  O     -256.697      39.013     236.364
  H     -257.421      44.976     241.870
  H     -255.781      38.679     236.324
  H     -259.435      41.898     244.753
  H     -259.973      41.458     238.345
  H     -259.255      44.257     240.275
  H     -257.248      42.798     241.611
  H     -256.439      41.787     239.556
  H     -256.681      44.558     238.273
  H     -257.361      43.062     236.283
  H     -261.718      38.256     243.389
  H     -261.743      38.299     241.621
  H     -255.632      43.128     236.716
  P     -253.898      42.189     240.162
  C     -252.386      42.474     238.110
  O     -252.509      42.652     239.510
  O     -254.263      40.762     239.930
  O     -253.667      42.484     241.723
  H     -253.404      41.659     242.168
  H     -252.139      41.430     237.896
  H     -251.576      43.113     237.745
  H     -253.312      42.744     237.598
  H     -259.509      41.035     233.686
  H     -258.076      40.117     233.292
  H     -257.964      41.841     233.555

 3  4  5  6  7  8  9  10  11  12  22  25  29  30  31  32 0
 6-311+G(2d,p)
 ****
 33  36  37 0
 6-311+G(2d,p)
 ****
 1  2  13  14  15  16  17  18  19  20  21  23  24  26 0
 3-21G
 ****
 27  28  34  35  38  39  40  41  42  43  44  45  46  47  48 0
 3-21G
 ****


