%nproc=1
%NoSave
%Mem=1900MB
#P OB98/GEN NMR

erre ene a

0 1
  C      -84.332     552.043      18.256
  O      -84.208     553.138      19.138
  H      -85.117     551.380      18.630
  H      -83.400     551.475      18.218
  H      -84.606     552.382      17.253
  P      -83.090     554.254      18.852
  C      -81.679     553.699      20.926
  O      -82.519     554.664      20.303
  C      -81.948     553.624      22.430
  O      -83.274     553.082      22.666
  C      -80.948     552.740      23.193
  O      -80.487     553.418      24.369
  C      -81.774     551.527      23.600
  O      -81.255     550.856      24.742
  C      -83.157     552.174      23.779
  N      -84.222     551.181      23.798
  C      -84.461     550.565      25.033
  O      -83.801     550.882      26.021
  N      -85.409     549.573      25.109
  C      -86.028     549.194      24.027
  N      -86.937     548.187      24.166
  C      -85.783     549.797      22.698
  C      -84.877     550.772      22.658
  O      -83.550     555.398      18.009
  O      -81.862     553.452      18.210
  H      -81.339     551.456      25.518
  H      -81.305     554.078      17.695
  H      -86.320     549.438      21.836
  H      -84.626     551.277      21.722
  H      -83.203     552.760      24.703
  H      -81.799     550.808      22.768
  H      -80.079     552.451      22.594
  H      -81.958     554.647      22.835
  H      -87.067     547.804      25.094
  H      -80.634     553.969      20.737
  H      -87.454     547.792      23.401
  H      -81.884     552.718      20.479
  P      -79.002     553.074      24.860
  C      -79.540     554.078      27.192
  O      -78.645     554.049      26.085
  O      -78.080     553.606      23.661
  O      -78.786     551.619      25.119
  H      -77.683     552.846      23.186
  H      -79.177     554.767      27.926
  H      -79.607     553.101      27.622
  H      -80.508     554.389      26.860

 6  7  8  9  10  11  12  13  14  15  16  26  30  31  32  33  35 0
 6-311+G(2d,p)
 ****
 37  38 0
 6-311+G(2d,p)
 ****
 1  2  3  4  5  17  18  19  20  21  22  23  24  25 0
 3-21G
 ****
 27  28  29  34  36  39  40  41  42  43  44  45  46 0
 3-21G
 ****


