%nproc=1
%NoSave
%Mem=1900MB
#P OB98/GEN NMR

erre ene a

0 1
  C     1061.201     603.980    -150.754
  O     1061.163     602.936    -149.773
  P     1062.399     602.760    -148.770
  C     1061.656     600.298    -148.521
  O     1062.116     601.473    -147.849
  C     1061.078     599.299    -147.520
  O     1062.019     598.973    -146.487
  C     1059.852     599.822    -146.775
  O     1058.711     599.807    -147.643
  C     1059.777     598.888    -145.600
  O     1059.129     597.632    -145.962
  C     1061.259     598.625    -145.305
  N     1061.754     599.345    -144.134
  C     1061.657     598.656    -142.905
  O     1061.160     597.518    -142.862
  N     1062.129     599.275    -141.759
  C     1062.638     600.470    -141.844
  N     1063.078     601.029    -140.688
  C     1062.738     601.210    -143.105
  C     1062.271     600.598    -144.207
  O     1062.806     603.997    -148.034
  O     1063.583     602.239    -149.732
  H     1058.284     597.871    -146.402
  H     1064.430     602.545    -149.367
  H     1063.183     602.215    -143.125
  H     1062.314     601.090    -145.167
  H     1061.446     597.542    -145.123
  H     1059.212     599.293    -144.763
  H     1060.037     600.850    -146.424
  H     1060.829     598.383    -148.060
  H     1062.998     600.481    -139.829
  H     1062.472     599.839    -149.068
  H     1063.540     601.928    -140.647
  H     1060.905     600.605    -149.265
  P     1057.555     600.892    -147.343
  C     1055.502     599.640    -148.312
  O     1056.405     600.707    -148.472
  O     1058.261     602.275    -147.777
  O     1057.069     600.940    -145.923
  H     1057.939     602.995    -147.199
  H     1054.634     599.835    -148.943
  H     1055.166     599.532    -147.280
  H     1055.976     598.708    -148.638
  H     1060.303     603.956    -151.336
  H     1062.046     603.836    -151.395
  H     1061.283     604.927    -150.264

 3  4  5  6  7  8  9  10  11  12  13  23  27  28  29  30  32 0
 6-311+G(2d,p)
 ****
 34  35 0
 6-311+G(2d,p)
 ****
 1  2  14  15  16  17  18  19  20  21  22  24  25  26 0
 3-21G
 ****
 31  33  36  37  38  39  40  41  42  43  44  45  46 0
 3-21G
 ****


