%nproc=1
%NoSave
%Mem=1900MB
#P OB98/GEN NMR

erre ene a

0 1
  C     -147.572    -181.498    -126.240
  O     -148.276    -181.996    -125.104
  P     -147.544    -182.002    -123.675
  C     -149.373    -182.674    -122.001
  O     -148.241    -183.106    -122.741
  C     -150.695    -182.986    -122.716
  O     -150.812    -184.408    -122.990
  C     -151.950    -182.569    -121.935
  O     -152.915    -182.129    -122.898
  C     -152.382    -183.873    -121.296
  O     -153.734    -183.845    -120.866
  C     -152.063    -184.853    -122.429
  N     -151.988    -186.231    -121.971
  C     -153.191    -186.868    -121.660
  O     -154.247    -186.233    -121.680
  N     -153.159    -188.196    -121.307
  C     -152.016    -188.783    -121.132
  N     -152.026    -190.104    -120.802
  C     -150.723    -188.088    -121.277
  C     -150.784    -186.837    -121.718
  O     -147.367    -180.663    -123.041
  O     -146.123    -182.672    -124.008
  H     -154.303    -183.581    -121.620
  H     -145.441    -182.260    -123.440
  H     -149.799    -188.598    -121.041
  H     -149.890    -186.246    -121.862
  H     -152.818    -184.790    -123.223
  H     -151.754    -184.080    -120.422
  H     -151.768    -181.763    -121.218
  H     -150.681    -182.470    -123.685
  H     -152.922    -190.560    -120.683
  H     -149.302    -181.596    -121.835
  H     -151.178    -190.646    -120.700
  H     -149.347    -183.136    -121.006
  P     -153.000    -180.567    -123.257
  C     -153.575    -180.777    -125.781
  O     -154.003    -180.398    -124.492
  O     -151.572    -180.316    -123.953
  O     -153.176    -179.635    -122.102
  H     -151.339    -179.373    -123.861
  H     -154.452    -180.863    -126.431
  H     -153.066    -181.744    -125.762
  H     -152.907    -180.015    -126.190
  H     -148.198    -181.565    -127.105
  H     -146.687    -182.080    -126.394
  H     -147.302    -180.476    -126.073

 3  4  5  6  7  8  9  10  11  12  13  23  27  28  29  30  32 0
 6-311+G(2d,p)
 ****
 34  35 0
 6-311+G(2d,p)
 ****
 1  2  14  15  16  17  18  19  20  21  22  24  25  26 0
 3-21G
 ****
 31  33  36  37  38  39  40  41  42  43  44  45  46 0
 3-21G
 ****


