%nproc=1
%NoSave
%Mem=1900MB
#P OB98/GEN NMR

erre ene a

0 1
  C     -178.015     223.863       4.347
  O     -177.004     223.197       3.611
  P     -177.178     222.913       2.047
  C     -177.810     220.488       1.257
  O     -178.199     221.700       1.866
  C     -176.910     219.709       2.226
  O     -177.603     219.479       3.471
  C     -176.509     218.351       1.652
  O     -175.248     218.435       1.006
  C     -176.500     217.462       2.881
  O     -175.265     217.616       3.608
  C     -177.680     218.046       3.696
  N     -179.048     217.604       3.359
  C     -179.481     216.347       3.768
  O     -178.801     215.569       4.431
  N     -180.746     215.993       3.358
  C     -181.599     216.779       2.638
  O     -182.610     216.372       2.078
  C     -181.189     218.178       2.476
  C     -179.944     218.515       2.816
  O     -175.769     222.274       1.637
  O     -177.520     224.102       1.211
  H     -175.212     218.550       3.886
  H     -175.195     222.948       1.229
  H     -181.014     215.029       3.530
  H     -181.891     218.873       2.037
  H     -179.603     219.535       2.671
  H     -177.538     217.870       4.769
  H     -176.562     216.409       2.608
  H     -177.282     217.986       0.961
  H     -176.017     220.310       2.443
  H     -177.275     220.694       0.322
  H     -178.693     219.894       1.000
  P     -174.929     217.468      -0.231
  C     -173.013     215.918       0.479
  O     -174.416     216.098       0.425
  O     -174.044     218.043      -1.288
  O     -176.386     217.111      -0.803
  H     -176.593     217.688      -1.566
  H     -172.795     215.048       1.101
  H     -172.529     216.798       0.913
  H     -172.625     215.742      -0.530
  H     -177.710     223.955       5.369
  H     -178.923     223.300       4.295
  H     -178.175     224.837       3.933

 3  4  5  6  7  8  9  10  11  12  13  23  28  29  30  31  32 0
 6-311+G(2d,p)
 ****
 33  34 0
 6-311+G(2d,p)
 ****
 1  2  14  15  16  17  18  19  20  21  22  24  25  26  27 0
 3-21G
 ****
 35  36  37  38  39  40  41  42  43  44  45 0
 3-21G
 ****


