%nproc=1
%NoSave
%Mem=1900MB
#P OB98/GEN NMR

erre ene a

0 1
  C      -28.925      86.929     -33.918
  O      -28.910      88.231     -34.472
  H      -29.909      86.750     -33.477
  H      -28.166      86.841     -33.136
  H      -28.749      86.187     -34.701
  P      -27.533      88.709     -35.143
  C      -26.804      89.683     -32.858
  O      -26.499      88.789     -33.919
  C      -25.980      89.345     -31.620
  O      -26.433      88.109     -31.041
  C      -24.490      89.172     -31.885
  O      -23.838      90.431     -31.903
  C      -24.074      88.348     -30.675
  O      -23.893      89.216     -29.539
  C      -25.292      87.437     -30.449
  N      -24.910      82.423     -29.419
  C      -24.817      83.510     -28.625
  N      -24.873      84.814     -28.973
  C      -25.057      84.946     -30.297
  C      -25.167      83.928     -31.232
  C      -25.092      82.612     -30.746
  N      -25.186      81.505     -31.561
  N      -25.343      84.442     -32.500
  C      -25.398      85.746     -32.323
  N      -25.194      86.104     -31.014
  O      -27.622      89.919     -36.010
  O      -27.078      87.368     -35.892
  H      -23.432      88.693     -28.856
  H      -27.253      86.590     -35.336
  H      -24.675      83.307     -27.567
  H      -25.604      86.472     -33.102
  H      -25.507      87.307     -29.382
  H      -23.130      87.824     -30.829
  H      -24.303      88.592     -32.796
  H      -26.152      90.134     -30.875
  H      -27.872      89.633     -32.616
  H      -24.930      80.616     -31.161
  H      -25.191      81.652     -32.560
  H      -26.576      90.697     -33.203
  P      -22.444      90.633     -32.670
  C      -21.233      90.868     -30.415
  O      -21.326      90.139     -31.633
  O      -22.244      91.992     -33.242
  O      -22.436      89.484     -33.781
  H      -21.765      89.683     -34.461
  H      -20.458      90.450     -29.807
  H      -22.165      90.811     -29.893
  H      -21.006      91.892     -30.628

 6  7  8  9  10  11  12  13  14  15  25  28  32  33  34  35 0
 6-311+G(2d,p)
 ****
 36  39  40 0
 6-311+G(2d,p)
 ****
 1  2  3  4  5  16  17  18  19  20  21  22  23  24 0
 3-21G
 ****
 26  27  29  30  31  37  38  41  42  43  44  45  46  47 0
 3-21G
 ****
 48 0
 3-21G
 ****


