%nproc=1
%NoSave
%Mem=1900MB
#P OB98/GEN NMR

erre ene a

0 1
  C      278.437    -370.009     176.208
  O      278.207    -368.710     176.711
  H      277.473    -370.495     176.039
  H      279.003    -370.601     176.931
  H      278.977    -369.967     175.256
  P      279.455    -367.723     176.900
  C      278.879    -366.609     174.645
  O      279.152    -366.413     176.029
  C      278.083    -365.423     174.105
  O      276.713    -365.491     174.557
  C      278.609    -364.069     174.563
  O      279.772    -363.701     173.855
  C      277.393    -363.190     174.298
  O      277.325    -362.818     172.912
  C      276.233    -364.132     174.679
  N      275.705    -363.875     176.017
  C      274.887    -362.756     176.156
  O      274.627    -361.988     175.232
  N      274.393    -362.533     177.416
  C      274.721    -363.231     178.541
  O      274.323    -362.933     179.663
  C      275.609    -364.387     178.339
  C      276.052    -364.650     177.105
  O      280.801    -368.332     176.682
  O      279.293    -367.195     178.405
  H      276.584    -362.186     172.835
  H      279.949    -367.639     178.976
  H      273.808    -361.721     177.536
  H      275.881    -364.973     179.206
  H      276.713    -365.492     176.939
  H      275.409    -364.029     173.959
  H      277.417    -362.265     174.879
  H      278.800    -364.087     175.644
  H      278.079    -365.484     173.005
  H      278.292    -367.525     174.529
  H      279.827    -366.718     174.109
  P      280.939    -362.900     174.600
  C      282.003    -365.114     175.365
  O      282.214    -363.866     174.701
  O      280.545    -362.236     175.878
  O      281.403    -361.812     173.519
  H      281.265    -360.913     173.878
  H      282.916    -365.673     175.373
  H      281.249    -365.670     174.848
  H      281.686    -364.934     176.371

 6  7  8  9  10  11  12  13  14  15  16  26  31  32  33  34  35 0
 6-311+G(2d,p)
 ****
 36  37 0
 6-311+G(2d,p)
 ****
 1  2  3  4  5  17  18  19  20  21  22  23  24  25 0
 3-21G
 ****
 27  28  29  30  38  39  40  41  42  43  44  45 0
 3-21G
 ****


