%nproc=1
%NoSave
%Mem=1900MB
#P OB98/GEN NMR

erre ene a

0 1
  C     -203.269    -769.610    -236.882
  O     -202.411    -768.476    -237.017
  P     -202.979    -767.169    -237.756
  C     -204.293    -766.168    -235.686
  O     -204.292    -766.658    -237.011
  C     -204.652    -764.678    -235.690
  O     -205.979    -764.490    -236.240
  C     -204.644    -764.048    -234.298
  O     -203.358    -763.585    -233.930
  C     -205.657    -762.929    -234.460
  O     -205.068    -761.808    -235.156
  C     -206.734    -763.609    -235.346
  N     -207.782    -764.406    -234.684
  C     -209.016    -763.824    -234.395
  O     -209.312    -762.658    -234.650
  N     -209.942    -764.640    -233.793
  C     -209.834    -765.994    -233.603
  O     -210.716    -766.673    -233.111
  C     -208.571    -766.578    -234.057
  C     -207.615    -765.787    -234.553
  O     -203.524    -767.722    -239.149
  O     -201.964    -766.076    -237.948
  H     -205.739    -761.095    -235.172
  H     -203.003    -767.351    -239.892
  H     -210.813    -764.211    -233.509
  H     -208.460    -767.654    -233.966
  H     -206.684    -766.216    -234.893
  H     -207.244    -762.869    -235.974
  H     -205.984    -762.541    -233.491
  H     -205.039    -764.754    -233.563
  H     -203.938    -764.149    -236.346
  H     -203.310    -766.310    -235.212
  H     -205.012    -766.734    -235.082
  P     -202.354    -764.584    -233.173
  C     -201.315    -765.411    -235.373
  O     -202.047    -765.766    -234.219
  O     -202.764    -765.011    -231.804
  O     -200.968    -763.767    -233.162
  H     -200.846    -763.293    -232.304
  H     -201.027    -766.325    -235.910
  H     -200.397    -764.865    -235.091
  H     -201.926    -764.788    -236.031
  H     -202.748    -770.393    -236.372
  H     -203.564    -769.952    -237.852
  H     -204.138    -769.335    -236.321

 3  4  5  6  7  8  9  10  11  12  13  23  28  29  30  31  32 0
 6-311+G(2d,p)
 ****
 33  34 0
 6-311+G(2d,p)
 ****
 1  2  14  15  16  17  18  19  20  21  22  24  25  26  27 0
 3-21G
 ****
 35  36  37  38  39  40  41  42  43  44  45 0
 3-21G
 ****


