%nproc=1
%NoSave
%Mem=1900MB
#P OB98/GEN NMR

erre ene a

0 1
  C      -49.756    -588.579    -587.538
  O      -50.913    -587.793    -587.711
  H      -49.870    -589.509    -588.099
  H      -49.633    -588.826    -586.479
  H      -48.862    -588.063    -587.902
  P      -50.810    -586.240    -587.313
  C      -51.960    -586.573    -585.010
  O      -52.010    -585.947    -586.286
  C      -53.327    -586.484    -584.327
  O      -53.594    -585.078    -583.998
  C      -54.497    -587.000    -585.180
  O      -55.446    -587.647    -584.320
  C      -55.128    -585.717    -585.691
  O      -56.494    -585.886    -586.052
  C      -54.914    -584.792    -584.490
  N      -58.235    -581.040    -584.599
  C      -58.307    -582.272    -583.995
  N      -59.456    -582.595    -583.370
  N      -57.320    -583.131    -583.999
  C      -56.218    -582.675    -584.654
  C      -56.022    -581.478    -585.291
  C      -57.121    -580.541    -585.281
  O      -57.132    -579.443    -585.818
  N      -54.786    -581.423    -585.872
  C      -54.238    -582.606    -585.606
  N      -55.072    -583.395    -584.866
  O      -51.279    -585.506    -588.657
  O      -49.467    -585.784    -586.871
  H      -56.949    -585.017    -585.981
  H      -50.497    -585.269    -589.191
  H      -59.032    -580.417    -584.575
  H      -53.261    -582.930    -585.943
  H      -55.640    -584.989    -583.680
  H      -54.586    -585.346    -586.569
  H      -60.251    -581.972    -583.290
  H      -54.205    -587.678    -585.984
  H      -59.507    -583.480    -582.893
  H      -53.269    -587.023    -583.367
  H      -51.220    -586.074    -584.392
  H      -51.664    -587.618    -585.137
  P      -55.406    -589.250    -584.229
  C      -57.471    -589.475    -585.810
  O      -56.872    -589.804    -584.555
  O      -55.258    -589.520    -582.659
  O      -54.289    -589.859    -585.008
  H      -54.705    -590.322    -582.515
  H      -58.442    -589.920    -585.869
  H      -56.860    -589.847    -586.605
  H      -57.560    -588.412    -585.895

 6  7  8  9  10  11  12  13  14  15  26  29  33  34 0
 6-311+G(2d,p)
 ****
 36  38  39  40  41 0
 6-311+G(2d,p)
 ****
 1  2  3  4  5  16  17  18  19  20  21  22  23  24  25 0
 3-21G
 ****
 27  28  30  31  32  35  37  42  43  44  45  46  47 0
 3-21G
 ****
 48  49 0
 3-21G
 ****


