%nproc=1
%NoSave
%Mem=1900MB
#P OB98/GEN NMR

erre ene a

0 1
  C      101.829    -445.652     591.324
  O      101.803    -444.245     591.390
  H      100.818    -446.015     591.141
  H      102.186    -446.063     592.277
  H      102.479    -445.983     590.514
  P      103.205    -443.488     591.631
  C      102.349    -442.515     593.893
  O      102.838    -442.242     592.589
  C      101.018    -441.797     594.125
  O      101.266    -440.371     594.237
  C       99.998    -442.011     593.009
  O       98.702    -442.231     593.587
  C      100.016    -440.709     592.235
  O       98.784    -440.471     591.551
  C      100.381    -439.689     593.319
  N      101.022    -438.494     592.757
  C      100.627    -437.266     593.301
  O       99.782    -437.217     594.199
  N      101.168    -436.114     592.791
  C      101.970    -436.180     591.772
  N      102.461    -434.998     591.291
  C      102.374    -437.456     591.138
  C      101.862    -438.557     591.677
  O      103.489    -442.807     590.218
  O      104.310    -444.355     592.130
  H       98.058    -440.465     592.221
  H      104.419    -442.482     590.155
  H      103.032    -437.452     590.278
  H      102.109    -439.532     591.270
  H       99.485    -439.383     593.883
  H      100.816    -440.744     591.477
  H      100.251    -442.854     592.368
  H      100.617    -442.106     595.108
  H      102.147    -434.146     591.754
  H      103.095    -442.182     594.633
  H      103.069    -434.927     590.484
  H      102.202    -443.601     594.002
  P       98.348    -443.776     593.936
  C       96.564    -443.721     592.054
  O       96.863    -444.051     593.397
  O       98.209    -443.779     595.527
  O       99.382    -444.738     593.453
  H       99.022    -444.116     595.948
  H       95.542    -443.961     591.847
  H       97.201    -444.278     591.399
  H       96.722    -442.674     591.900

 6  7  8  9  10  11  12  13  14  15  16  26  30  31  32  33  35 0
 6-311+G(2d,p)
 ****
 37  38 0
 6-311+G(2d,p)
 ****
 1  2  3  4  5  17  18  19  20  21  22  23  24  25 0
 3-21G
 ****
 27  28  29  34  36  39  40  41  42  43  44  45  46 0
 3-21G
 ****


