%nproc=1
%NoSave
%Mem=1900MB
#P OB98/GEN NMR

erre ene a

0 1
  C      499.428    -501.441     704.923
  O      498.736    -500.201     704.839
  P      498.830    -499.183     706.077
  C      496.350    -499.473     706.694
  O      497.698    -499.577     707.142
  C      495.380    -499.786     707.835
  O      495.366    -498.737     708.821
  C      493.933    -499.927     707.371
  O      493.730    -501.151     706.706
  C      493.185    -499.770     708.689
  O      493.156    -501.014     709.420
  C      494.059    -498.738     709.439
  N      493.482    -497.397     709.464
  C      492.639    -497.117     710.545
  O      492.393    -497.976     711.389
  N      492.093    -495.857     710.633
  C      492.341    -494.972     709.724
  N      491.776    -493.753     709.851
  C      493.208    -495.248     708.557
  C      493.734    -496.468     708.487
  O      498.896    -497.726     705.716
  O      500.184    -499.649     706.817
  H      494.086    -501.178     709.689
  H      500.589    -498.867     707.248
  H      493.394    -494.467     707.814
  H      494.382    -496.744     707.671
  H      494.208    -499.045     710.478
  H      492.154    -499.461     708.531
  H      493.680    -499.091     706.705
  H      495.704    -500.713     708.319
  H      491.166    -493.595     710.662
  H      496.185    -500.164     705.867
  H      491.949    -492.980     709.226
  H      496.189    -498.462     706.300
  P      493.552    -501.117     705.114
  C      491.032    -501.630     705.506
  O      492.000    -500.862     704.808
  O      493.768    -502.653     704.692
  O      494.503    -500.217     704.391
  H      494.184    -502.695     703.811
  H      490.062    -501.130     705.425
  H      491.294    -501.721     706.561
  H      490.957    -502.617     705.052
  H      499.267    -502.001     704.026
  H      499.063    -501.997     705.761
  H      500.475    -501.258     705.046

 3  4  5  6  7  8  9  10  11  12  13  23  27  28  29  30  32 0
 6-311+G(2d,p)
 ****
 34  35 0
 6-311+G(2d,p)
 ****
 1  2  14  15  16  17  18  19  20  21  22  24  25  26 0
 3-21G
 ****
 31  33  36  37  38  39  40  41  42  43  44  45  46 0
 3-21G
 ****


