%nproc=1
%NoSave
%Mem=1900MB
#P OB98/GEN NMR

erre ene a

0 1
  C      103.596     270.339      17.923
  O      104.036     269.083      17.447
  P      105.273     268.968      16.439
  C      106.789     269.777      18.343
  O      106.441     269.928      16.976
  C      108.287     269.986      18.567
  O      108.568     269.983      19.988
  C      109.176     268.918      17.909
  O      110.342     269.586      17.412
  C      109.533     268.011      19.069
  O      110.715     267.260      18.824
  C      109.625     269.028      20.210
  N      109.515     268.407      21.519
  C      110.685     268.308      22.275
  O      111.770     268.615      21.778
  N      110.595     267.849      23.564
  C      109.472     267.352      23.990
  N      109.411     266.973      25.297
  C      108.282     267.214      23.134
  C      108.354     267.794      21.940
  O      104.938     269.147      14.997
  O      105.865     267.503      16.709
  H      105.927     267.022      15.859
  H      110.965     266.790      19.647
  H      107.412     266.683      23.492
  H      107.521     267.772      21.243
  H      110.573     269.578      20.159
  H      108.714     267.306      19.248
  H      108.674     268.401      17.084
  H      108.552     270.983      18.183
  H      110.235     267.120      25.864
  H      106.524     268.763      18.651
  H      108.525     266.882      25.791
  H      106.206     270.474      18.958
  P      111.162     268.896      16.215
  C      109.929     270.190      14.334
  O      110.246     268.936      14.903
  O      111.083     267.342      16.628
  O      112.588     269.305      16.061
  H      111.842     266.875      16.235
  H      109.248     270.034      13.497
  H      110.833     270.680      13.962
  H      109.436     270.834      15.069
  H      102.763     270.200      18.580
  H      103.299     270.950      17.096
  H      104.392     270.819      18.453

 3  4  5  6  7  8  9  10  11  12  13  24  27  28  29  30  32 0
 6-311+G(2d,p)
 ****
 34  35 0
 6-311+G(2d,p)
 ****
 1  2  14  15  16  17  18  19  20  21  22  23  25  26 0
 3-21G
 ****
 31  33  36  37  38  39  40  41  42  43  44  45  46 0
 3-21G
 ****


