%nproc=1
%NoSave
%Mem=1900MB
#P OB98/GEN NMR

erre ene a

0 1
  C     -222.301     220.637      71.539
  O     -222.774     221.922      71.896
  H     -221.614     220.289      72.315
  H     -221.763     220.690      70.589
  H     -223.134     219.933      71.461
  P     -223.937     222.543      70.979
  C     -222.512     224.735      70.729
  O     -223.751     224.134      71.062
  C     -222.470     226.185      71.215
  O     -223.357     226.978      70.387
  C     -222.908     226.359      72.670
  O     -222.129     227.403      73.257
  C     -224.352     226.818      72.549
  O     -224.790     227.526      73.703
  C     -224.292     227.649      71.256
  N     -225.602     227.795      70.627
  C     -225.630     228.387      69.360
  O     -224.584     228.769      68.831
  N     -226.838     228.571      68.737
  C     -227.933     228.254      69.353
  N     -229.100     228.485      68.694
  C     -227.957     227.668      70.708
  C     -226.769     227.460      71.276
  O     -225.239     222.265      71.868
  O     -224.001     221.980      69.598
  H     -224.772     226.915      74.472
  H     -225.116     222.474      72.809
  H     -228.895     227.431      71.186
  H     -226.691     227.027      72.265
  H     -223.897     228.652      71.461
  H     -225.012     225.955      72.413
  H     -222.802     225.444      73.257
  H     -221.457     226.575      71.060
  H     -229.039     228.909      67.776
  H     -222.356     224.711      69.646
  H     -230.011     228.329      69.098
  H     -221.715     224.152      71.202
  P     -220.837     227.032      74.125
  C     -222.404     226.514      76.117
  O     -221.198     227.133      75.683
  O     -219.568     227.702      73.718
  O     -220.716     225.441      73.907
  H     -219.769     225.227      73.798
  H     -222.519     226.658      77.171
  H     -222.365     225.467      75.902
  H     -223.235     226.952      75.604

 6  7  8  9  10  11  12  13  14  15  16  26  30  31  32  33  35 0
 6-311+G(2d,p)
 ****
 37  38 0
 6-311+G(2d,p)
 ****
 1  2  3  4  5  17  18  19  20  21  22  23  24  25 0
 3-21G
 ****
 27  28  29  34  36  39  40  41  42  43  44  45  46 0
 3-21G
 ****


