%nproc=1
%NoSave
%Mem=1900MB
#P OB98/GEN NMR

erre ene a

0 1
  C     -518.763    -367.469     116.509
  O     -519.004    -367.299     117.892
  H     -518.108    -366.675     116.147
  H     -518.271    -368.432     116.353
  H     -519.703    -367.459     115.948
  P     -519.981    -366.106     118.334
  C     -521.838    -367.725     119.148
  O     -521.473    -366.690     118.249
  C     -522.058    -369.042     118.399
  O     -520.818    -369.396     117.702
  C     -522.447    -370.233     119.301
  O     -523.413    -371.026     118.615
  C     -521.153    -371.024     119.419
  O     -521.373    -372.403     119.696
  C     -520.530    -370.766     118.039
  N     -516.817    -373.574     116.004
  C     -518.085    -373.345     115.614
  N     -518.995    -372.540     116.202
  C     -518.463    -371.872     117.235
  C     -517.184    -372.004     117.745
  C     -516.334    -372.917     117.083
  N     -515.043    -373.203     117.511
  N     -517.026    -371.187     118.859
  C     -518.195    -370.612     119.026
  N     -519.099    -370.997     118.073
  O     -519.895    -365.115     117.077
  O     -519.628    -365.420     119.610
  H     -521.855    -372.798     118.941
  H     -519.147    -364.499     117.195
  H     -518.427    -373.897     114.741
  H     -518.456    -369.946     119.837
  H     -520.956    -371.407     117.257
  H     -520.533    -370.602     120.218
  H     -522.840    -369.937     120.287
  H     -522.823    -368.880     117.644
  H     -522.764    -367.449     119.667
  H     -514.567    -373.959     117.043
  H     -514.732    -372.798     118.383
  H     -521.040    -367.848     119.904
  P     -524.882    -370.398     118.435
  C     -525.711    -371.474     116.215
  O     -525.216    -370.321     116.864
  O     -524.680    -368.855     118.842
  O     -525.937    -371.055     119.268
  H     -525.493    -368.503     119.254
  H     -525.880    -371.256     115.181
  H     -526.631    -371.773     116.672
  H     -524.996    -372.266     116.300

 6  7  8  9  10  11  12  13  14  15  25  28  32  33  34  35 0
 6-311+G(2d,p)
 ****
 36  39  40 0
 6-311+G(2d,p)
 ****
 1  2  3  4  5  16  17  18  19  20  21  22  23  24 0
 3-21G
 ****
 26  27  29  30  31  37  38  41  42  43  44  45  46  47 0
 3-21G
 ****
 48 0
 3-21G
 ****


