%nproc=1
%NoSave
%Mem=1900MB
#P OB98/GEN NMR

erre ene a

0 1
  C     -105.088     456.947     130.763
  O     -105.000     458.349     130.623
  H     -106.042     456.701     131.239
  H     -104.277     456.583     131.399
  H     -105.043     456.457     129.786
  P     -103.747     458.931     129.805
  C     -103.173     459.256     127.293
  O     -104.082     458.725     128.247
  C     -103.833     459.340     125.918
  O     -104.359     458.032     125.571
  C     -104.987     460.342     125.849
  O     -104.952     460.994     124.576
  C     -106.228     459.471     125.935
  O     -107.372     460.083     125.342
  C     -105.754     458.188     125.243
  N     -106.543     457.031     125.661
  C     -107.531     456.590     124.774
  O     -107.707     457.176     123.705
  N     -108.329     455.539     125.139
  C     -108.212     455.023     126.327
  N     -109.054     454.003     126.643
  C     -107.230     455.504     127.322
  C     -106.429     456.492     126.922
  O     -102.592     457.858     130.077
  O     -103.334     460.316     130.171
  H     -107.600     460.885     125.862
  H     -101.713     458.278     130.085
  H     -107.188     455.058     128.304
  H     -105.685     456.912     127.585
  H     -105.828     458.287     124.151
  H     -106.462     459.271     126.988
  H     -104.954     461.094     126.644
  H     -103.063     459.579     125.176
  H     -109.724     453.716     125.940
  H     -102.300     458.597     127.229
  H     -109.083     453.562     127.549
  H     -102.842     460.249     127.619
  P     -103.772     462.056     124.343
  C     -101.184     461.846     124.260
  O     -102.441     461.251     123.961
  O     -103.477     462.609     125.815
  O     -104.137     463.159     123.401
  H     -103.799     463.526     125.897
  H     -100.397     461.192     123.948
  H     -101.111     462.014     125.314
  H     -101.099     462.779     123.743

 6  7  8  9  10  11  12  13  14  15  16  26  30  31  32  33  35 0
 6-311+G(2d,p)
 ****
 37  38 0
 6-311+G(2d,p)
 ****
 1  2  3  4  5  17  18  19  20  21  22  23  24  25 0
 3-21G
 ****
 27  28  29  34  36  39  40  41  42  43  44  45  46 0
 3-21G
 ****


