%nproc=1
%NoSave
%Mem=1900MB
#P OB98/GEN NMR

erre ene a

0 1
  C     -865.996    -537.100    1639.905
  O     -864.689    -536.540    1640.056
  P     -864.248    -535.513    1641.189
  C     -864.555    -533.186    1639.960
  O     -863.691    -534.198    1640.474
  C     -863.755    -532.113    1639.202
  O     -863.339    -531.073    1640.124
  C     -862.469    -532.674    1638.553
  O     -862.232    -532.196    1637.243
  C     -861.398    -532.381    1639.608
  O     -860.079    -532.405    1639.104
  C     -861.901    -531.053    1640.175
  N     -858.473    -528.752    1643.208
  C     -858.485    -528.877    1641.823
  N     -857.439    -528.315    1641.165
  N     -859.433    -529.486    1641.148
  C     -860.353    -530.074    1641.942
  C     -860.439    -530.036    1643.319
  C     -859.427    -529.306    1644.038
  O     -859.354    -529.171    1645.272
  N     -861.549    -530.746    1643.771
  C     -862.102    -531.189    1642.678
  N     -861.427    -530.810    1641.539
  O     -863.448    -536.074    1642.305
  O     -865.663    -534.992    1641.810
  H     -859.477    -532.311    1639.871
  H     -865.496    -534.806    1642.751
  H     -857.733    -528.265    1643.672
  H     -863.011    -531.788    1642.647
  H     -861.540    -530.192    1639.608
  H     -861.474    -533.181    1640.377
  H     -856.632    -527.943    1641.610
  H     -862.550    -533.759    1638.403
  H     -857.342    -528.598    1640.179
  H     -864.419    -531.667    1638.434
  H     -865.053    -532.744    1640.815
  H     -865.321    -533.655    1639.318
  P     -862.117    -533.014    1635.867
  C     -859.562    -533.137    1635.745
  O     -860.769    -532.626    1635.124
  O     -863.252    -532.355    1634.905
  O     -862.366    -534.501    1636.009
  H     -863.911    -533.037    1634.671
  H     -858.700    -532.599    1635.299
  H     -859.458    -534.203    1635.488
  H     -859.579    -532.987    1636.816
  H     -866.007    -537.757    1639.061
  H     -866.706    -536.314    1639.754
  H     -866.253    -537.648    1640.787

 3  4  5  6  7  8  9  10  11  12  23  26  30  31 0
 6-311+G(2d,p)
 ****
 33  35  36  37  38 0
 6-311+G(2d,p)
 ****
 1  2  13  14  15  16  17  18  19  20  21  22  24  25 0
 3-21G
 ****
 27  28  29  32  34  39  40  41  42  43  44  45  46  47  48  49 0
 3-21G
 ****


