%nproc=1
%NoSave
%Mem=1900MB
#P OB98/GEN NMR

erre ene a

0 1
  C       -8.363     -23.934      71.077
  O       -9.255     -24.784      70.392
  H       -7.555     -23.653      70.397
  H       -7.934     -24.465      71.931
  H       -8.862     -23.025      71.424
  P      -10.733     -24.977      70.970
  C      -12.934     -26.090      70.212
  O      -11.629     -25.670      69.832
  C      -13.874     -26.170      69.009
  O      -14.010     -24.862      68.412
  C      -13.350     -27.102      67.914
  O      -13.708     -28.464      68.080
  C      -13.996     -26.514      66.663
  O      -15.298     -27.079      66.433
  C      -14.109     -25.021      66.990
  N      -12.720     -22.455      62.792
  C      -13.800     -23.299      62.974
  N      -14.577     -23.507      61.890
  N      -14.069     -23.888      64.110
  C      -13.146     -23.661      65.072
  C      -12.027     -22.862      65.002
  C      -11.777     -22.155      63.764
  O      -10.846     -21.385      63.557
  N      -11.300     -22.908      66.167
  C      -11.934     -23.799      66.903
  N      -13.102     -24.223      66.314
  O      -11.317     -23.483      71.007
  O      -10.816     -25.609      72.327
  H      -15.578     -26.835      65.529
  H      -11.947     -23.397      71.745
  H      -12.581     -22.008      61.904
  H      -11.618     -24.138      67.883
  H      -15.085     -24.620      66.691
  H      -13.398     -26.734      65.775
  H      -14.369     -23.149      60.973
  H      -12.265     -27.009      67.813
  H      -15.265     -24.262      61.928
  H      -14.872     -26.472      69.349
  H      -13.302     -25.353      70.926
  H      -12.889     -27.054      70.726
  P      -13.141     -29.587      67.096
  C      -12.976     -32.208      67.134
  O      -13.375     -31.013      67.771
  O      -11.557     -29.387      67.193
  O      -13.630     -29.513      65.686
  H      -11.229     -28.866      66.437
  H      -13.225     -33.043      67.755
  H      -11.919     -32.188      66.969
  H      -13.482     -32.298      66.196

 6  7  8  9  10  11  12  13  14  15  26  29  33  34 0
 6-311+G(2d,p)
 ****
 36  38  39  40  41 0
 6-311+G(2d,p)
 ****
 1  2  3  4  5  16  17  18  19  20  21  22  23  24  25 0
 3-21G
 ****
 27  28  30  31  32  35  37  42  43  44  45  46  47 0
 3-21G
 ****
 48  49 0
 3-21G
 ****


