%nproc=1
%NoSave
%Mem=1900MB
#P OB98/GEN NMR

erre ene a

0 1
  C       15.870      16.740       3.619
  O       16.121      17.769       4.553
  H       16.697      16.027       3.655
  H       15.803      17.148       2.608
  H       14.945      16.214       3.872
  P       15.086      18.987       4.654
  C       12.801      19.397       5.782
  O       13.903      18.509       5.628
  C       11.675      18.711       6.564
  O       11.254      17.551       5.804
  C       12.128      18.238       7.953
  O       11.285      18.702       9.004
  C       12.276      16.732       7.779
  O       12.118      15.983       8.966
  C       11.259      16.409       6.679
  N       11.561      15.189       5.933
  C       10.829      14.050       6.250
  O        9.933      13.994       7.090
  N       11.155      12.922       5.541
  C       12.117      12.824       4.582
  O       12.359      11.787       3.977
  C       12.871      14.056       4.308
  C       12.565      15.165       4.986
  O       14.631      19.558       3.354
  O       15.857      20.079       5.536
  H       12.573      15.125       8.839
  H       16.204      20.781       4.955
  H       10.623      12.093       5.755
  H       13.650      14.013       3.559
  H       13.101      16.092       4.807
  H       10.260      16.300       7.101
  H       13.286      16.528       7.403
  H       13.106      18.662       8.209
  H       10.821      19.394       6.626
  H       12.453      19.678       4.783
  H       13.125      20.298       6.313
  P       11.676      19.849      10.043
  C       11.908      22.244       9.003
  O       11.060      21.228       9.517
  O       13.102      19.867      10.477
  O       10.777      19.499      11.336
  H       11.296      19.775      12.119
  H       11.317      23.084       8.703
  H       12.445      21.867       8.158
  H       12.601      22.547       9.760

 6  7  8  9  10  11  12  13  14  15  16  26  31  32  33  34  35 0
 6-311+G(2d,p)
 ****
 36  37 0
 6-311+G(2d,p)
 ****
 1  2  3  4  5  17  18  19  20  21  22  23  24  25 0
 3-21G
 ****
 27  28  29  30  38  39  40  41  42  43  44  45 0
 3-21G
 ****


