%nproc=1
%NoSave
%Mem=1900MB
#P OB98/GEN NMR

erre ene a

0 1
  C       90.398     770.870    -135.384
  O       91.340     770.607    -134.360
  P       90.860     770.394    -132.844
  C       91.675     772.197    -131.108
  O       90.777     771.827    -132.137
  C       92.952     772.761    -131.747
  O       92.621     773.680    -132.806
  C       93.803     773.516    -130.726
  O       94.799     772.661    -130.175
  C       94.372     774.650    -131.544
  O       95.528     774.213    -132.301
  C       93.193     774.975    -132.498
  N       92.113     775.848    -131.993
  C       92.269     777.225    -132.038
  O       93.261     777.793    -132.503
  N       91.237     777.953    -131.502
  C       90.085     777.449    -130.975
  O       89.296     778.079    -130.282
  C       89.867     776.010    -131.200
  C       90.880     775.278    -131.675
  O       92.140     769.719    -132.154
  O       89.627     769.568    -132.667
  H       95.215     773.516    -132.907
  H       92.026     768.749    -132.093
  H       91.405     778.958    -131.386
  H       88.914     775.586    -130.928
  H       90.754     774.216    -131.825
  H       93.559     775.415    -133.438
  H       94.729     775.467    -130.904
  H       93.166     773.929    -129.934
  H       93.530     771.930    -132.180
  H       91.910     771.331    -130.481
  H       91.214     772.948    -130.457
  P       95.232     772.830    -128.640
  C       97.390     774.184    -128.303
  O       95.999     774.244    -128.575
  O       95.967     771.675    -128.036
  O       93.838     773.106    -127.893
  H       93.505     772.280    -127.498
  H       97.818     775.175    -128.462
  H       97.888     773.470    -128.957
  H       97.541     773.887    -127.250
  H       90.908     770.981    -136.318
  H       89.868     771.771    -135.158
  H       89.706     770.056    -135.450

 3  4  5  6  7  8  9  10  11  12  13  23  28  29  30  31  32 0
 6-311+G(2d,p)
 ****
 33  34 0
 6-311+G(2d,p)
 ****
 1  2  14  15  16  17  18  19  20  21  22  24  25  26  27 0
 3-21G
 ****
 35  36  37  38  39  40  41  42  43  44  45 0
 3-21G
 ****


