%nproc=1
%NoSave
%Mem=1900MB
#P OB98/GEN NMR

erre ene a

0 1
  C     -326.753    -899.160     862.009
  O     -327.277    -898.040     862.704
  H     -327.443    -900.000     862.134
  H     -325.784    -899.440     862.415
  H     -326.663    -898.940     860.941
  P     -326.418    -896.690     862.736
  C     -328.087    -895.370     861.272
  O     -326.765    -895.890     861.388
  C     -328.051    -893.840     861.229
  O     -327.636    -893.370     862.537
  C     -327.058    -893.310     860.187
  O     -327.640    -892.370     859.286
  C     -325.880    -892.830     861.036
  O     -325.113    -891.800     860.444
  C     -326.548    -892.440     862.363
  N     -325.642    -892.490     863.515
  C     -325.367    -891.290     864.148
  O     -325.846    -890.190     863.846
  N     -324.500    -891.360     865.218
  C     -323.904    -892.500     865.677
  O     -323.137    -892.500     866.636
  C     -324.218    -893.740     864.943
  C     -325.056    -893.670     863.911
  O     -324.959    -896.860     863.009
  O     -327.132    -895.810     863.872
  H     -325.707    -891.030     860.301
  H     -326.605    -895.840     864.694
  H     -324.300    -890.500     865.695
  H     -323.751    -894.650     865.275
  H     -325.305    -894.570     863.341
  H     -326.962    -891.440     862.308
  H     -325.215    -893.680     861.201
  H     -326.715    -894.110     859.524
  H     -329.069    -893.470     861.049
  H     -328.655    -895.710     862.146
  H     -328.550    -895.760     860.365
  P     -328.648    -892.750     858.108
  C     -330.729    -892.010     859.534
  O     -330.094    -893.010     858.745
  O     -328.149    -893.750     857.127
  O     -328.839    -891.340     857.320
  H     -328.971    -891.580     856.372
  H     -331.680    -892.369     859.867
  H     -330.867    -891.126     858.946
  H     -330.117    -891.783     860.382

 6  7  8  9  10  11  12  13  14  15  16  26  31  32  33  34  35 0
 6-311+G(2d,p)
 ****
 36  37 0
 6-311+G(2d,p)
 ****
 1  2  3  4  5  17  18  19  20  21  22  23  24  25 0
 3-21G
 ****
 27  28  29  30  38  39  40  41  42  43  44  45 0
 3-21G
 ****


