%nproc=1
%NoSave
%Mem=1900MB
#P OB98/GEN NMR

erre ene a

0 1
  C      -82.546     146.832    -126.981
  O      -82.104     148.033    -126.382
  H      -82.894     146.156    -126.197
  H      -81.716     146.359    -127.510
  H      -83.371     147.023    -127.674
  P      -81.862     149.284    -127.359
  C      -80.114     149.880    -129.182
  O      -80.492     148.989    -128.144
  C      -79.210     149.169    -130.185
  O      -79.922     148.090    -130.828
  C      -78.688     150.064    -131.305
  O      -77.539     150.795    -130.896
  C      -78.329     149.024    -132.353
  O      -77.081     148.390    -131.999
  C      -79.482     148.022    -132.214
  N      -81.847     146.696    -136.500
  C      -80.657     146.240    -135.967
  N      -80.000     145.301    -136.682
  N      -80.153     146.665    -134.838
  C      -80.905     147.621    -134.244
  C      -82.096     148.160    -134.677
  C      -82.649     147.668    -135.918
  O      -83.705     148.034    -136.428
  N      -82.565     149.110    -133.808
  C      -81.648     149.162    -132.863
  N      -80.618     148.280    -133.082
  O      -81.472     150.457    -126.339
  O      -83.029     149.666    -128.205
  H      -77.186     148.036    -131.097
  H      -82.246     151.039    -126.219
  H      -82.184     146.343    -137.377
  H      -81.685     149.811    -131.999
  H      -79.163     146.992    -132.407
  H      -78.195     149.456    -133.346
  H      -80.321     144.945    -137.569
  H      -79.471     150.725    -131.695
  H      -79.128     144.948    -136.308
  H      -78.377     148.723    -129.628
  H      -79.577     150.729    -128.746
  H      -81.015     150.244    -129.684
  P      -77.372     152.301    -131.422
  C      -76.457     153.419    -133.575
  O      -76.855     152.212    -132.941
  O      -76.085     152.811    -130.617
  O      -78.545     153.189    -131.192
  H      -76.348     153.494    -129.969
  H      -76.139     153.209    -134.575
  H      -75.649     153.859    -133.029
  H      -77.283     154.098    -133.599

 6  7  8  9  10  11  12  13  14  15  26  29  33  34 0
 6-311+G(2d,p)
 ****
 36  38  39  40  41 0
 6-311+G(2d,p)
 ****
 1  2  3  4  5  16  17  18  19  20  21  22  23  24  25 0
 3-21G
 ****
 27  28  30  31  32  35  37  42  43  44  45  46  47 0
 3-21G
 ****
 48  49 0
 3-21G
 ****


