%nproc=1
%NoSave
%Mem=1900MB
#P OB98/GEN NMR

erre ene a

0 1
  C       77.872     -22.733      62.174
  O       78.839     -23.770      62.213
  P       80.356     -23.457      62.633
  C       80.708     -23.342      60.089
  O       81.055     -22.786      61.353
  C       81.580     -22.751      58.983
  O       81.526     -21.306      59.067
  C       83.047     -23.159      59.084
  O       83.574     -23.320      57.763
  C       83.729     -21.962      59.726
  O       85.121     -21.901      59.370
  C       82.873     -20.807      59.197
  N       85.519     -16.767      60.941
  C       85.815     -17.699      60.011
  N       85.077     -18.761      59.615
  C       83.893     -18.773      60.249
  C       83.447     -17.887      61.220
  C       84.322     -16.841      61.568
  N       84.011     -15.882      62.509
  N       82.188     -18.241      61.665
  C       81.874     -19.307      60.961
  N       82.865     -19.662      60.085
  O       81.099     -24.611      63.213
  O       80.244     -22.241      63.664
  H       85.525     -21.192      59.911
  H       80.898     -22.344      64.383
  H       86.778     -17.583      59.518
  H       80.953     -19.863      61.054
  H       83.210     -20.477      58.205
  H       83.664     -22.044      60.818
  H       83.194     -24.079      59.659
  H       81.162     -23.040      58.012
  H       79.659     -23.104      59.884
  H       84.645     -15.104      62.605
  H       83.059     -15.838      62.847
  H       80.816     -24.431      60.127
  P       84.321     -24.719      57.469
  C       86.696     -24.033      58.291
  O       85.518     -24.771      58.531
  O       84.679     -24.868      56.027
  O       83.235     -25.767      58.003
  H       82.648     -25.366      58.682
  H       87.403     -24.228      59.101
  H       86.475     -22.963      58.274
  H       87.151     -24.337      57.343
  H       76.928     -23.137      61.874
  H       78.179     -21.985      61.473
  H       77.780     -22.295      63.146

 3  4  5  6  7  8  9  10  11  12  22  25  29  30  31  32 0
 6-311+G(2d,p)
 ****
 33  36  37 0
 6-311+G(2d,p)
 ****
 1  2  13  14  15  16  17  18  19  20  21  23  24  26 0
 3-21G
 ****
 27  28  34  35  38  39  40  41  42  43  44  45  46  47  48 0
 3-21G
 ****


