%nproc=1
%NoSave
%Mem=1900MB
#P OB98/GEN NMR

erre ene a

0 1
  C      120.201     208.251     -51.686
  O      120.170     206.934     -52.194
  H      119.948     208.947     -52.493
  H      121.204     208.490     -51.319
  H      119.473     208.367     -50.879
  P      120.474     205.752     -51.152
  C      123.032     206.207     -51.258
  O      121.867     206.122     -50.446
  C      124.177     205.440     -50.600
  O      125.353     205.520     -51.436
  C      124.601     205.992     -49.242
  O      123.728     205.578     -48.205
  C      126.007     205.420     -49.116
  O      125.987     204.073     -48.626
  C      126.506     205.440     -50.568
  N      131.342     207.022     -50.228
  C      130.758     205.833     -49.957
  N      129.460     205.486     -50.094
  C      128.743     206.518     -50.572
  C      129.198     207.789     -50.886
  C      130.569     208.030     -50.700
  N      131.157     209.249     -50.942
  N      128.151     208.586     -51.304
  C      127.088     207.811     -51.254
  N      127.399     206.553     -50.823
  O      120.848     204.521     -52.107
  O      119.355     205.419     -50.222
  H      125.373     203.575     -49.202
  H      120.054     203.974     -52.263
  H      131.421     205.059     -49.578
  H      126.078     208.114     -51.508
  H      127.046     204.523     -50.833
  H      126.615     206.007     -48.426
  H      124.666     207.087     -49.281
  H      123.889     204.385     -50.518
  H      123.320     207.259     -51.368
  H      122.807     205.792     -52.245
  H      132.142     209.357     -50.764
  H      130.572     210.035     -51.192
  P      123.442     206.590     -46.996
  C      125.264     205.584     -45.435
  O      124.796     206.722     -46.142
  O      122.469     205.752     -46.041
  O      122.840     207.893     -47.403
  H      121.542     206.029     -46.174
  H      126.169     205.831     -44.920
  H      125.453     204.788     -46.125
  H      124.524     205.274     -44.727

 6  7  8  9  10  11  12  13  14  15  25  28  32  33  34  35 0
 6-311+G(2d,p)
 ****
 36  37  40 0
 6-311+G(2d,p)
 ****
 1  2  3  4  5  16  17  18  19  20  21  22  23  24 0
 3-21G
 ****
 26  27  29  30  31  38  39 41  42  43  44  45  46  47  48 0
 3-21G
 ****


