%nproc=1
%NoSave
%Mem=1900MB
#P OB98/GEN NMR

erre ene a

0 1
  C      172.069     179.684     195.706
  O      173.408     179.989     195.373
  H      171.694     178.940     194.998
  H      171.439     180.576     195.642
  H      172.018     179.264     196.715
  P      174.148     181.175     196.157
  C      172.790     183.084     195.086
  O      173.086     182.371     196.282
  C      172.458     184.543     195.394
  O      172.023     185.188     194.165
  C      171.347     184.714     196.439
  O      171.662     185.845     197.253
  C      170.129     184.995     195.586
  O      169.133     185.690     196.312
  C      170.725     185.766     194.403
  N      169.866     185.680     193.225
  C      168.863     186.652     193.111
  O      168.753     187.528     193.969
  N      167.973     186.572     192.070
  C      168.040     185.576     191.245
  N      167.101     185.537     190.261
  C      169.059     184.510     191.341
  C      169.931     184.624     192.344
  O      175.486     181.579     195.630
  O      174.253     180.625     197.657
  H      168.329     185.781     195.756
  H      175.092     180.146     197.782
  H      169.066     183.697     190.630
  H      170.709     183.886     192.499
  H      170.870     186.822     194.660
  H      169.693     184.050     195.238
  H      171.210     183.828     197.067
  H      173.375     185.050     195.711
  H      166.407     186.271     190.249
  H      171.926     182.601     194.615
  H      167.026     184.787     189.586
  H      173.643     183.028     194.401
  P      171.887     185.678     198.832
  C      169.422     185.305     199.404
  O      170.726     184.739     199.431
  O      172.092     186.959     199.573
  O      173.193     184.755     198.938
  H      173.678     184.972     199.756
  H      168.723     184.610     199.821
  H      169.149     185.523     198.393
  H      169.413     186.208     199.978

 6  7  8  9  10  11  12  13  14  15  16  26  30  31  32  33  35 0
 6-311+G(2d,p)
 ****
 37  38 0
 6-311+G(2d,p)
 ****
 1  2  3  4  5  17  18  19  20  21  22  23  24  25 0
 3-21G
 ****
 27  28  29  34  36  39  40  41  42  43  44  45  46 0
 3-21G
 ****


