%nproc=1
%NoSave
%Mem=1900MB
#P OB98/GEN NMR

erre ene a

0 1
  C      -15.447      23.483     -96.357
  O      -15.337      24.880     -96.185
  H      -14.803      22.988     -95.624
  H      -15.115      23.207     -97.362
  H      -16.476      23.145     -96.204
  P      -16.426      25.832     -96.871
  C      -16.656      27.415     -94.844
  O      -16.274      27.284     -96.206
  C      -16.071      28.690     -94.226
  O      -14.644      28.527     -94.038
  C      -16.263      29.882     -95.173
  O      -16.358      31.116     -94.469
  C      -14.978      29.872     -95.988
  O      -14.689      31.134     -96.587
  C      -13.965      29.429     -94.933
  N       -9.700      29.927     -97.676
  C      -10.701      30.848     -97.449
  N      -10.562      32.055     -98.043
  N      -11.756      30.604     -96.712
  C      -11.802      29.333     -96.241
  C      -10.881      28.325     -96.422
  C       -9.702      28.620     -97.205
  O       -8.789      27.836     -97.458
  N      -11.283      27.162     -95.807
  C      -12.442      27.464     -95.261
  N      -12.795      28.776     -95.484
  O      -17.818      25.318     -96.264
  O      -16.444      25.822     -98.369
  H      -14.742      31.808     -95.884
  H      -18.551      25.530     -96.866
  H       -8.901      30.172     -98.238
  H      -13.063      26.779     -94.691
  H      -13.619      30.290     -94.347
  H      -15.095      29.147     -96.801
  H       -9.866      32.226     -98.752
  H      -17.141      29.764     -95.806
  H      -11.408      32.624     -98.129
  H      -16.505      28.864     -93.233
  H      -16.277      26.533     -94.315
  H      -17.746      27.409     -94.755
  P      -17.817      31.757     -94.287
  C      -17.383      32.556     -91.826
  O      -17.722      32.891     -93.161
  O      -18.654      30.580     -93.594
  O      -18.440      32.210     -95.565
  H      -19.261      30.172     -94.242
  H      -17.371      33.443     -91.228
  H      -16.415      32.100     -91.807
  H      -18.107      31.872     -91.435

 6  7  8  9  10  11  12  13  14  15  26  29  33  34 0
 6-311+G(2d,p)
 ****
 36  38  39  40  41 0
 6-311+G(2d,p)
 ****
 1  2  3  4  5  16  17  18  19  20  21  22  23  24  25 0
 3-21G
 ****
 27  28  30  31  32  35  37  42  43  44  45  46  47 0
 3-21G
 ****
 48  49 0
 3-21G
 ****


