%nproc=1
%NoSave
%Mem=1900MB
#P OB98/GEN NMR

erre ene a

0 1
  C       -3.162      62.876      72.836
  O       -1.850      63.174      72.349
  P       -0.795      63.782      73.392
  C        1.018      61.974      72.913
  O        0.679      63.357      72.931
  C        2.021      61.694      71.793
  O        1.385      61.728      70.502
  C        3.135      62.722      71.715
  O        4.103      62.486      72.718
  C        3.656      62.521      70.297
  O        4.705      61.539      70.251
  C        2.406      62.024      69.534
  N        1.936      62.980      68.545
  C        2.387      62.778      67.236
  O        3.153      61.846      66.982
  N        1.977      63.648      66.259
  C        1.208      64.646      66.567
  N        0.839      65.479      65.557
  C        0.733      64.911      67.941
  C        1.134      64.048      68.872
  O       -1.037      62.906      74.709
  O       -0.979      65.240      73.659
  H        4.331      60.735      70.668
  H       -0.879      63.443      75.506
  H        0.102      65.761      68.150
  H        0.835      64.165      69.909
  H        2.627      61.083      69.014
  H        4.073      63.447      69.889
  H        2.719      63.732      71.816
  H        2.446      60.692      71.951
  H        1.185      65.270      64.629
  H        0.121      61.370      72.770
  H        0.251      66.289      65.685
  H        1.430      61.699      73.889
  P        5.122      63.670      73.067
  C        4.152      63.814      75.438
  O        5.312      63.603      74.657
  O        4.196      64.969      72.900
  O        6.367      63.765      72.251
  H        4.731      65.777      72.994
  H        4.371      63.538      76.472
  H        3.326      63.196      75.077
  H        3.871      64.870      75.408
  H       -3.757      62.480      72.040
  H       -3.616      63.770      73.209
  H       -3.095      62.155      73.624

 3  4  5  6  7  8  9  10  11  12  13  21  23  27  28  29  30  32 0
 6-311+G(2d,p)
 ****
 34  35 0
 6-311+G(2d,p)
 ****
 1  2  14  15  16  17  18  19  20  22  24  25  26 0
 3-21G
 ****
 31  33  36  37  38  39  40  41  42  43  44  45  46 0
 3-21G
 ****


