%nproc=1
%NoSave
%Mem=1900MB
#P OB98/GEN NMR

erre ene a

0 1
  C     -890.650     163.753     357.850
  O     -890.760     165.059     357.319
  P     -889.730     165.572     356.216
  C     -891.670     166.812     355.079
  O     -890.550     165.943     354.891
  C     -892.850     166.331     354.226
  O     -893.410     165.125     354.800
  C     -894.010     167.337     354.156
  O     -893.710     168.398     353.264
  C     -895.150     166.429     353.704
  O     -895.100     166.219     352.284
  C     -894.820     165.118     354.448
  N     -899.480     163.969     356.219
  C     -899.030     164.233     354.978
  N     -897.780     164.566     354.581
  C     -896.970     164.652     355.641
  C     -897.290     164.453     356.998
  C     -898.610     164.080     357.261
  N     -899.080     163.744     358.534
  N     -896.180     164.657     357.790
  C     -895.210     164.990     356.965
  N     -895.610     164.935     355.665
  O     -888.540     164.681     355.983
  O     -889.260     167.007     356.760
  H     -894.170     165.986     352.079
  H     -888.290     166.996     356.915
  H     -899.760     164.150     354.173
  H     -894.210     165.252     357.244
  H     -894.990     164.238     353.808
  H     -896.140     166.852     353.957
  H     -894.230     167.729     355.164
  H     -892.480     166.103     353.225
  H     -891.380     167.824     354.774
  H     -900.000     163.347     358.580
  H     -898.390     163.510     359.232
  H     -891.940     166.831     356.133
  P     -893.730     169.913     353.794
  C     -891.330     170.455     353.027
  O     -892.210     170.299     354.128
  O     -894.720     170.215     354.877
  O     -894.030     170.762     352.465
  H     -894.550     171.558     352.704
  H     -891.030     169.471     352.667
  H     -890.460     171.016     353.359
  H     -891.820     171.005     352.207
  H     -891.425     163.595     358.571
  H     -889.696     163.639     358.321
  H     -890.746     163.038     357.060

 3  4  5  6  7  8  9  10  11  12  22  25  29  30  31  32 0
 6-311+G(2d,p)
 ****
 33  36  37 0
 6-311+G(2d,p)
 ****
 1  2  13  14  15  16  17  18  19  20  21  23  24  26 0
 3-21G
 ****
 27  28  34  35  38  39  40  41  42  43  44  45  46  47  48 0
 3-21G
 ****


