%nproc=1
%NoSave
%Mem=1900MB
#P OB98/GEN NMR

erre ene a

0 1
  C     -453.903      -4.374    -236.232
  O     -454.088      -4.724    -234.875
  H     -453.015      -4.892    -236.605
  H     -453.745      -3.298    -236.333
  H     -454.763      -4.684    -236.831
  P     -455.333      -4.089    -234.086
  C     -453.852      -3.919    -231.968
  O     -454.654      -3.227    -232.910
  C     -452.570      -3.139    -231.690
  O     -451.616      -3.306    -232.761
  C     -452.752      -1.629    -231.571
  O     -453.366      -1.221    -230.361
  C     -451.304      -1.185    -231.665
  O     -450.635      -1.446    -230.417
  C     -450.780      -2.111    -232.786
  N     -450.829      -1.483    -234.105
  C     -449.706      -0.734    -234.483
  O     -448.741      -0.624    -233.729
  N     -449.709      -0.104    -235.707
  C     -450.755      -0.186    -236.467
  N     -450.709       0.462    -237.664
  C     -451.968      -0.945    -236.101
  C     -451.934      -1.560    -234.921
  O     -456.393      -5.048    -233.649
  O     -455.878      -2.936    -235.057
  H     -451.153      -1.000    -229.721
  H     -456.659      -2.517    -234.618
  H     -452.824      -0.960    -236.762
  H     -452.791      -2.132    -234.577
  H     -449.752      -2.432    -232.582
  H     -451.191      -0.120    -231.876
  H     -453.294      -1.228    -232.438
  H     -452.116      -3.562    -230.784
  H     -449.866       0.972    -237.891
  H     -453.628      -4.910    -232.372
  H     -451.505       0.517    -238.289
  H     -454.395      -4.035    -231.026
  P     -454.971      -1.113    -230.361
  C     -454.969      -0.091    -227.955
  O     -455.347       0.044    -229.318
  O     -455.421      -2.461    -229.631
  O     -455.596      -0.951    -231.711
  H     -455.683      -3.139    -230.286
  H     -455.298       0.767    -227.407
  H     -453.904      -0.171    -227.886
  H     -455.420      -0.971    -227.545

 6  7  8  9  10  11  12  13  14  15  16  26  30  31  32  33  35 0
 6-311+G(2d,p)
 ****
 37  38 0
 6-311+G(2d,p)
 ****
 1  2  3  4  5  17  18  19  20  21  22  23  24  25 0
 3-21G
 ****
 27  28  29  34  36  39  40  41  42  43  44  45  46 0
 3-21G
 ****


