%nproc=1
%NoSave
%Mem=1900MB
#P OB98/GEN NMR

erre ene a

0 1
  C      307.514     242.466     -61.199
  O      307.905     243.365     -60.179
  H      306.808     241.728     -60.803
  H      307.022     243.028     -62.001
  H      308.393     241.956     -61.608
  P      308.611     242.732     -58.887
  C      310.520     244.404     -59.493
  O      309.746     243.787     -58.465
  C      311.779     245.003     -58.884
  O      311.453     246.183     -58.119
  C      312.508     244.064     -57.921
  O      313.341     243.128     -58.586
  C      313.335     245.064     -57.121
  O      314.469     245.486     -57.896
  C      312.335     246.225     -56.957
  N      311.925     247.700     -52.068
  C      312.820     248.012     -53.033
  N      312.849     247.591     -54.318
  C      311.807     246.783     -54.569
  C      310.821     246.377     -53.688
  C      310.903     246.872     -52.379
  N      310.012     246.527     -51.378
  N      309.932     245.517     -54.315
  C      310.375     245.413     -55.550
  N      311.528     246.133     -55.751
  O      309.467     241.508     -59.477
  O      307.704     242.327     -57.775
  H      315.053     244.711     -57.989
  H      309.758     240.913     -58.756
  H      313.625     248.686     -52.737
  H      309.913     244.822     -56.338
  H      312.821     247.203     -56.952
  H      313.713     244.644     -56.185
  H      311.804     243.564     -57.245
  H      312.450     245.312     -59.703
  H      309.922     245.193     -59.967
  H      310.238     246.812     -50.438
  H      309.336     245.799     -51.565
  H      310.781     243.646     -60.246
  P      313.315     241.608     -58.074
  C      313.912     240.720     -60.439
  O      314.257     240.769     -59.060
  O      311.835     241.120     -58.469
  O      313.584     241.441     -56.609
  H      311.496     240.469     -57.822
  H      314.630     240.127     -60.965
  H      313.906     241.712     -60.841
  H      312.941     240.285     -60.548

 6  7  8  9  10  11  12  13  14  15  25  28  32  33  34  35 0
 6-311+G(2d,p)
 ****
 36  39  40 0
 6-311+G(2d,p)
 ****
 1  2  3  4  5  16  17  18  19  20  21  22  23  24 0
 3-21G
 ****
 26  27  29  30  31  37  38  41  42  43  44  45  46  47 0
 3-21G
 ****
 48 0
 3-21G
 ****


