%nproc=1
%NoSave
%Mem=1900MB
#P OB98/GEN NMR

erre ene a

0 1
  C      186.064    -320.753    -482.864
  O      186.705    -320.049    -481.819
  H      186.766    -321.484    -483.276
  H      185.767    -320.068    -483.662
  H      185.186    -321.285    -482.486
  P      185.878    -318.911    -481.053
  C      187.193    -319.579    -478.934
  O      186.756    -318.516    -479.771
  C      188.519    -319.214    -478.278
  O      188.437    -317.913    -477.665
  C      188.954    -320.184    -477.181
  O      189.559    -321.335    -477.748
  C      189.931    -319.310    -476.412
  O      191.177    -319.226    -477.129
  C      189.213    -317.951    -476.434
  N      188.878    -317.324    -471.416
  C      189.979    -317.599    -472.204
  N      191.150    -317.774    -471.555
  N      189.930    -317.712    -473.508
  C      188.682    -317.581    -474.009
  C      187.515    -317.324    -473.328
  C      187.587    -317.146    -471.893
  O      186.641    -316.884    -471.159
  N      186.429    -317.325    -474.168
  C      186.949    -317.544    -475.362
  N      188.311    -317.722    -475.316
  O      184.450    -319.230    -480.732
  O      186.011    -317.630    -482.001
  H      191.639    -318.439    -476.793
  H      185.264    -317.574    -482.625
  H      188.977    -317.268    -470.416
  H      186.387    -317.582    -476.286
  H      189.914    -317.109    -476.462
  H      190.155    -319.689    -475.416
  H      191.185    -317.981    -470.564
  H      188.124    -320.445    -476.515
  H      191.958    -318.027    -472.109
  H      189.278    -319.150    -479.068
  H      187.309    -320.468    -479.562
  H      186.446    -319.787    -478.163
  P      188.862    -322.777    -477.635
  C      190.428    -323.688    -479.479
  O      189.975    -323.817    -478.137
  O      187.547    -322.895    -478.326
  O      188.799    -323.070    -476.069
  H      187.980    -322.726    -475.634
  H      191.164    -324.438    -479.681
  H      190.860    -322.719    -479.618
  H      189.602    -323.810    -480.148

 6  7  8  9  10  11  12  13  14  15  26  29  33  34 0
 6-311+G(2d,p)
 ****
 36  38  39  40  41 0
 6-311+G(2d,p)
 ****
 1  2  3  4  5  16  17  18  19  20  21  22  23  24  25 0
 3-21G
 ****
 27  28  30  31  32  35  37  42  43  44  45  46  47 0
 3-21G
 ****
 48  49 0
 3-21G
 ****


