%nproc=1
%NoSave
%Mem=1900MB
#P OB98/GEN NMR

erre ene a

0 1
  C      143.306    -428.070    -149.719
  O      142.150    -427.378    -149.298
  P      142.184    -426.012    -148.479
  C      142.523    -425.350    -145.973
  O      142.706    -426.321    -146.993
  C      141.879    -425.972    -144.730
  O      140.496    -426.286    -145.031
  C      142.565    -427.302    -144.344
  O      142.758    -427.471    -142.944
  C      141.709    -428.339    -145.062
  O      141.842    -429.653    -144.527
  C      140.320    -427.718    -144.970
  N      138.325    -431.582    -147.602
  C      139.069    -431.616    -146.442
  N      139.492    -432.833    -146.036
  N      139.403    -430.545    -145.768
  C      139.016    -429.389    -146.354
  C      138.268    -429.231    -147.503
  C      137.874    -430.425    -148.217
  O      137.309    -430.437    -149.310
  N      138.120    -427.908    -147.831
  C      138.801    -427.268    -146.905
  N      139.393    -428.124    -146.004
  O      141.002    -425.109    -148.634
  O      143.460    -425.269    -149.139
  H      141.346    -430.259    -145.103
  H      143.264    -424.307    -149.134
  H      138.163    -432.435    -148.123
  H      138.925    -426.188    -146.854
  H      139.835    -427.959    -144.020
  H      142.052    -428.386    -146.100
  H      139.373    -433.660    -146.619
  H      143.579    -427.338    -144.749
  H      140.234    -432.864    -145.349
  H      141.890    -425.245    -143.905
  H      141.866    -424.584    -146.391
  H      143.476    -424.873    -145.719
  P      143.834    -428.377    -142.187
  C      143.908    -430.704    -141.111
  O      143.223    -429.849    -141.999
  O      143.872    -427.818    -140.691
  O      145.208    -428.352    -142.783
  H      144.789    -427.820    -140.364
  H      143.574    -431.734    -141.275
  H      143.684    -430.420    -140.079
  H      144.991    -430.657    -141.277
  H      143.019    -428.955    -150.248
  H      143.891    -428.339    -148.865
  H      143.884    -427.441    -150.363

 3  4  5  6  7  8  9  10  11  12  23  26  30  31 0
 6-311+G(2d,p)
 ****
 33  35  36  37  38 0
 6-311+G(2d,p)
 ****
 1  2  13  14  15  16  17  18  19  20  21  22  24  25 0
 3-21G
 ****
 27  28  29  32  34  39  40  41  42  43  44  45  46  47  48  49 0
 3-21G
 ****


