%nproc=1
%NoSave
%Mem=1900MB
#P OB98/GEN NMR

erre ene a

0 1
  C     -672.540      -1.525     392.222
  O     -672.289      -2.480     393.228
  P     -673.471      -3.389     393.800
  C     -672.630      -5.801     394.084
  O     -673.284      -4.879     393.218
  C     -671.788      -6.778     393.254
  O     -670.779      -6.047     392.508
  C     -671.009      -7.792     394.107
  O     -671.859      -8.827     394.573
  C     -669.945      -8.252     393.105
  O     -670.475      -9.241     392.216
  C     -669.652      -6.945     392.345
  N     -664.720      -7.630     393.525
  C     -665.709      -8.503     393.252
  N     -667.011      -8.255     392.982
  C     -667.256      -6.936     393.044
  C     -666.350      -5.904     393.356
  C     -665.024      -6.306     393.584
  N     -663.981      -5.411     393.806
  N     -666.988      -4.682     393.347
  C     -668.244      -4.942     393.059
  N     -668.440      -6.271     392.801
  O     -674.855      -2.820     393.635
  O     -673.116      -3.562     395.356
  H     -669.731      -9.511     391.630
  H     -673.833      -3.189     395.896
  H     -665.430      -9.556     393.225
  H     -669.038      -4.222     393.004
  H     -669.539      -7.125     391.266
  H     -669.068      -8.682     393.610
  H     -670.521      -7.282     394.954
  H     -672.440      -7.285     392.548
  H     -673.389      -6.354     394.645
  H     -663.052      -5.796     393.801
  H     -664.128      -4.452     393.534
  H     -672.000      -5.253     394.791
  P     -672.127      -8.990     396.144
  C     -674.644      -9.271     395.685
  O     -673.659      -8.562     396.401
  O     -671.116      -8.351     397.045
  O     -672.172     -10.583     396.343
  H     -671.814     -10.808     397.230
  H     -674.683      -8.893     394.657
  H     -675.608      -9.117     396.174
  H     -674.416     -10.348     395.664
  H     -671.630      -1.021     391.974
  H     -673.257      -0.814     392.576
  H     -672.924      -2.016     391.352

 3  4  5  6  7  8  9  10  11  12  22  25  29  30  31  32 0
 6-311+G(2d,p)
 ****
 33  36  37 0
 6-311+G(2d,p)
 ****
 1  2  13  14  15  16  17  18  19  20  21  23  24  26 0
 3-21G
 ****
 27  28  34  35  38  39  40  41  42  43  44  45  46  47  48 0
 3-21G
 ****


