%nproc=1
%NoSave
%Mem=1900MB
#P OB98/GEN NMR

erre ene a

0 1
  C      117.945    -154.141       9.804
  O      117.392    -155.062       8.886
  H      117.299    -154.095      10.686
  H      117.991    -153.148       9.350
  H      118.944    -154.458      10.115
  P      118.290    -155.432       7.608
  C      116.957    -153.676       6.239
  O      118.235    -154.165       6.627
  C      117.100    -152.326       5.541
  O      117.396    -151.289       6.505
  C      118.214    -152.271       4.501
  O      117.799    -152.806       3.252
  C      118.436    -150.771       4.408
  O      117.390    -150.171       3.617
  C      118.302    -150.339       5.875
  N      122.472    -147.660       6.934
  C      121.400    -147.346       6.122
  N      121.446    -146.152       5.494
  N      120.372    -148.134       5.937
  C      120.467    -149.301       6.617
  C      121.475    -149.726       7.451
  C      122.602    -148.840       7.654
  O      123.568    -149.057       8.380
  N      121.212    -150.964       7.973
  C      120.057    -151.302       7.440
  N      119.561    -150.329       6.603
  O      117.410    -156.532       6.840
  O      119.657    -155.950       7.915
  H      116.542    -150.425       4.033
  H      118.012    -157.192       6.442
  H      123.244    -147.019       7.032
  H      119.535    -152.229       7.625
  H      117.863    -149.343       5.979
  H      119.382    -150.511       3.932
  H      122.229    -145.516       5.553
  H      119.129    -152.752       4.866
  H      120.653    -145.882       4.919
  H      116.132    -152.079       5.084
  H      116.332    -153.559       7.129
  H      116.489    -154.401       5.566
  P      118.906    -153.559       2.359
  C      119.243    -151.600       0.682
  O      119.809    -152.395       1.724
  O      118.059    -154.095       1.110
  O      119.638    -154.657       3.055
  H      118.517    -154.849       0.700
  H      119.958    -150.871       0.361
  H      118.368    -151.105       1.047
  H      118.980    -152.228      -0.143

 6  7  8  9  10  11  12  13  14  15  26  29  33  34 0
 6-311+G(2d,p)
 ****
 36  38  39  40  41 0
 6-311+G(2d,p)
 ****
 1  2  3  4  5  16  17  18  19  20  21  22  23  24  25 0
 3-21G
 ****
 27  28  30  31  32  35  37  42  43  44  45  46  47 0
 3-21G
 ****
 48  49 0
 3-21G
 ****


