%nproc=1
%NoSave
%Mem=1900MB
#P OB98/GEN NMR

erre ene a

0 1
  C     -404.398    -178.570    -480.581
  O     -404.001    -178.747    -479.241
  P     -403.995    -180.172    -478.504
  C     -405.426    -179.573    -476.410
  O     -405.349    -180.295    -477.640
  C     -406.750    -179.802    -475.651
  O     -407.843    -179.225    -476.418
  C     -407.048    -181.315    -475.552
  O     -406.465    -182.069    -474.522
  C     -408.563    -181.408    -475.655
  O     -409.201    -181.538    -474.375
  C     -408.973    -180.103    -476.332
  N     -413.195    -180.440    -479.119
  C     -413.035    -179.971    -477.826
  N     -414.187    -179.742    -477.133
  N     -411.880    -179.770    -477.261
  C     -410.826    -180.138    -478.059
  C     -410.861    -180.600    -479.349
  C     -412.148    -180.776    -479.978
  O     -412.333    -181.264    -481.084
  N     -409.607    -180.928    -479.806
  C     -408.821    -180.707    -478.766
  N     -409.523    -180.263    -477.670
  O     -402.709    -180.611    -477.888
  O     -404.290    -181.169    -479.752
  H     -410.156    -181.668    -474.522
  H     -403.811    -181.998    -479.575
  H     -414.120    -180.649    -479.467
  H     -407.746    -180.886    -478.752
  H     -409.732    -179.570    -475.727
  H     -408.846    -182.307    -476.231
  H     -415.090    -180.034    -477.489
  H     -406.661    -181.762    -476.479
  H     -414.109    -179.570    -476.147
  H     -406.755    -179.278    -474.694
  H     -405.286    -178.515    -476.645
  H     -404.590    -179.877    -475.760
  P     -406.626    -183.652    -474.304
  C     -407.569    -183.743    -471.909
  O     -407.863    -183.882    -473.290
  O     -405.359    -184.062    -473.400
  O     -406.673    -184.459    -475.554
  H     -405.176    -185.016    -473.520
  H     -408.382    -184.221    -471.335
  H     -407.517    -182.688    -471.649
  H     -406.627    -184.244    -471.649
  H     -404.316    -177.536    -480.844
  H     -405.413    -178.888    -480.697
  H     -403.767    -179.151    -481.220

 3  4  5  6  7  8  9  10  11  12  23  26  30  31 0
 6-311+G(2d,p)
 ****
 33  35  36  37  38 0
 6-311+G(2d,p)
 ****
 1  2  13  14  15  16  17  18  19  20  21  22  24  25 0
 3-21G
 ****
 27  28  29  32  34  39  40  41  42  43  44  45  46  47  48  49 0
 3-21G
 ****


