%nproc=1
%NoSave
%Mem=1900MB
#P OB98/GEN NMR

erre ene a

0 1
  C       65.522    -332.655    -591.924
  O       65.498    -333.584    -593.008
  P       65.071    -335.087    -592.673
  C       63.981    -335.539    -594.983
  O       65.040    -335.856    -594.087
  C       64.218    -336.193    -596.341
  O       64.224    -337.616    -596.194
  C       63.150    -335.889    -597.383
  O       63.352    -334.624    -597.997
  C       63.391    -337.018    -598.380
  O       64.471    -336.677    -599.257
  C       63.777    -338.195    -597.455
  N       60.519    -341.490    -599.487
  C       61.504    -340.741    -600.093
  N       61.668    -340.910    -601.425
  N       62.267    -339.897    -599.449
  C       62.025    -339.853    -598.125
  C       61.064    -340.539    -597.398
  C       60.191    -341.441    -598.128
  O       59.264    -342.087    -597.667
  N       61.116    -340.251    -596.065
  C       62.137    -339.415    -595.962
  N       62.695    -339.119    -597.193
  O       63.517    -334.956    -592.286
  O       65.853    -335.750    -591.582
  H       64.340    -335.749    -599.535
  H       63.260    -335.694    -591.706
  H       59.971    -342.140    -600.031
  H       62.505    -338.999    -595.026
  H       64.625    -338.750    -597.870
  H       62.515    -337.217    -599.015
  H       61.195    -341.645    -601.947
  H       62.144    -335.982    -596.961
  H       62.412    -340.401    -601.875
  H       65.211    -335.883    -596.702
  H       63.928    -334.450    -595.113
  H       63.030    -335.880    -594.547
  P       62.047    -333.935    -598.652
  C       63.213    -331.651    -598.240
  O       62.549    -332.494    -599.158
  O       61.121    -333.620    -597.395
  O       61.343    -334.786    -599.669
  H       60.187    -333.580    -597.662
  H       63.854    -332.222    -597.558
  H       62.481    -331.087    -597.659
  H       63.837    -330.945    -598.802
  H       65.822    -331.694    -592.285
  H       66.216    -332.990    -591.182
  H       64.545    -332.585    -591.493

 3  4  5  6  7  8  9  10  11  12  23  26  30  31  33  0
 6-311+G(2d,p)
 ****
 35  36  37  38 0
 6-311+G(2d,p)
 ****
 1  2  13  14  15  16  17  18  19  20  21  22  24  25  27  28  29 0
 3-21G
 ****
 32  34  39  40  41  42  43  44  45  46  47  48  49 0
 3-21G
 ****


