%nproc=1
%NoSave
%Mem=1900MB
#P OB98/GEN NMR

erre ene a

0 1
  C      189.142      40.100      83.906
  O      190.041      41.018      83.315
  H      188.320      40.658      84.362
  H      189.657      39.532      84.684
  H      188.732      39.418      83.154
  P      191.138      40.413      82.311
  C      192.938      40.454      84.184
  O      192.234      39.676      83.226
  C      194.135      39.677      84.720
  O      193.693      38.489      85.415
  C      195.112      39.208      83.647
  O      196.031      40.235      83.292
  C      195.816      38.078      84.381
  O      196.777      38.625      85.311
  C      194.657      37.429      85.152
  N      192.010      33.129      85.644
  C      192.585      33.931      86.610
  N      192.440      33.527      87.891
  N      193.246      35.029      86.350
  C      193.332      35.300      85.025
  C      192.809      34.579      83.972
  C      192.068      33.376      84.277
  O      191.530      32.637      83.458
  N      193.101      35.162      82.768
  C      193.817      36.222      83.089
  N      193.988      36.350      84.446
  O      191.898      41.724      81.788
  O      190.592      39.613      81.176
  H      197.435      39.117      84.784
  H      191.579      41.936      80.891
  H      191.520      32.289      85.899
  H      194.226      36.929      82.382
  H      194.974      37.027      86.120
  H      196.366      37.416      83.709
  H      191.964      32.680      88.161
  H      194.591      38.808      82.768
  H      192.851      34.102      88.617
  H      194.645      40.313      85.456
  H      192.261      40.700      85.010
  H      193.277      41.380      83.707
  P      196.468      40.362      81.755
  C      198.680      39.044      82.064
  O      197.410      39.100      81.428
  O      197.489      41.593      81.782
  O      195.355      40.597      80.792
  H      197.100      42.359      81.317
  H      199.194      38.158      81.756
  H      198.547      39.029      83.126
  H      199.255      39.904      81.789

 6  7  8  9  10  11  12  13  14  15  26  29  33  34 0
 6-311+G(2d,p)
 ****
 36  38  39  40  41 0
 6-311+G(2d,p)
 ****
 1  2  3  4  5  16  17  18  19  20  21  22  23  24  25 0
 3-21G
 ****
 27  28  30  31  32  35  37  42  43  44  45  46  47 0
 3-21G
 ****
 48  49 0
 3-21G
 ****


