%nproc=1
%NoSave
%Mem=1900MB
#P OB98/GEN NMR

erre ene a

0 1
  C     -174.395      33.093    -353.260
  O     -174.797      32.835    -354.590
  H     -175.056      32.542    -352.585
  H     -174.481      34.159    -353.041
  H     -173.369      32.760    -353.093
  P     -173.888      33.388    -355.791
  C     -172.748      31.163    -356.418
  O     -172.583      32.459    -355.855
  C     -171.743      30.196    -355.796
  O     -172.166      29.836    -354.461
  C     -171.610      28.878    -356.550
  O     -170.858      29.033    -357.739
  C     -170.968      28.006    -355.486
  O     -169.551      28.218    -355.427
  C     -171.649      28.510    -354.197
  N     -172.714      27.609    -353.751
  C     -172.318      26.325    -353.391
  O     -171.149      25.937    -353.422
  N     -173.326      25.466    -353.047
  C     -174.664      25.725    -353.162
  O     -175.525      24.856    -353.082
  C     -175.019      27.113    -353.486
  C     -174.043      27.976    -353.774
  O     -173.624      34.856    -355.777
  O     -174.700      32.952    -357.103
  H     -175.176      33.728    -357.457
  H     -169.432      29.173    -355.241
  H     -173.053      24.520    -352.824
  H     -176.071      27.377    -353.516
  H     -174.283      29.000    -354.048
  H     -170.916      28.611    -353.390
  H     -171.136      26.946    -355.685
  H     -172.604      28.483    -356.782
  H     -170.773      30.705    -355.722
  H     -172.575      31.224    -357.499
  H     -173.775      30.825    -356.239
  P     -171.561      28.864    -359.168
  C     -170.251      30.868    -360.104
  O     -171.536      30.285    -359.912
  O     -172.894      28.192    -359.145
  O     -170.507      28.006    -360.018
  H     -170.975      27.253    -360.429
  H     -170.357      31.807    -360.606
  H     -169.647      30.213    -360.696
  H     -169.784      31.023    -359.154

 6  7  8  9  10  11  12  13  14  15  16  27  31  32  33  34  35 0
 6-311+G(2d,p)
 ****
 36  37 0
 6-311+G(2d,p)
 ****
 1  2  3  4  5  17  18  19  20  21  22  23  24  25 0
 3-21G
 ****
 26  28  29  30  38  39  40  41  42  43  44  45 0
 3-21G
 ****


