%nproc=1
%NoSave
%Mem=1900MB
#P OB98/GEN NMR

erre ene a

0 1
  C      523.800     145.529    -490.987
  O      522.671     144.874    -490.360
  P      522.928     143.922    -489.085
  C      523.292     145.664    -487.162
  O      523.863     144.701    -488.036
  C      523.569     145.281    -485.710
  O      524.979     145.384    -485.418
  C      522.884     146.166    -484.678
  O      521.502     145.859    -484.545
  C      523.697     145.859    -483.427
  O      523.224     144.653    -482.789
  C      525.115     145.648    -484.005
  N      525.991     146.797    -483.760
  C      527.157     146.559    -483.038
  O      527.432     145.446    -482.566
  N      527.969     147.625    -482.842
  C      527.722     148.914    -483.234
  O      528.488     149.844    -482.998
  C      526.441     149.134    -483.910
  C      525.639     148.080    -484.135
  O      523.936     142.830    -489.684
  O      521.715     143.265    -488.516
  H      523.032     144.023    -483.511
  H      523.833     141.989    -489.201
  H      528.846     147.467    -482.344
  H      526.188     150.150    -484.222
  H      524.697     148.233    -484.633
  H      525.579     144.762    -483.567
  H      523.630     146.650    -482.680
  H      523.035     147.224    -484.951
  H      523.276     144.228    -485.559
  H      522.207     145.695    -487.329
  H      523.705     146.655    -487.388
  P      520.552     147.046    -484.010
  C      520.361     148.320    -486.287
  O      520.852     148.280    -484.963
  O      521.264     147.389    -482.618
  O      519.120     146.627    -483.887
  H      522.236     147.282    -482.663
  H      519.401     147.784    -486.379
  H      521.098     147.839    -486.949
  H      520.231     149.358    -486.613
  H      523.457     146.119    -491.812
  H      524.490     144.791    -491.339
  H      524.286     146.162    -490.274

 3  4  5  6  7  8  9  10  11  12  13  23  28  29  30  31  32 0
 6-311+G(2d,p)
 ****
 33  34 0
 6-311+G(2d,p)
 ****
 1  2  14  15  16  17  18  19  20  21  22  24  25  26 0
 3-21G
 ****
 27  35  36  37  38  39  40  41  42  43  44  45 0
 3-21G
 ****


