%nproc=1
%NoSave
%Mem=1900MB
#P OB98/GEN NMR

erre ene a

0 1
  C       -6.004    -523.025      -8.552
  O       -7.341    -522.659      -8.855
  P       -7.691    -522.396     -10.398
  C       -6.990    -520.586     -12.144
  O       -6.971    -521.023     -10.798
  C       -5.903    -519.531     -12.361
  O       -4.661    -519.972     -11.772
  C       -5.600    -519.238     -13.826
  O       -6.549    -518.333     -14.350
  C       -4.187    -518.671     -13.734
  O       -4.216    -517.282     -13.347
  C       -3.564    -519.540     -12.629
  N        0.955    -521.218     -14.161
  C        0.533    -519.941     -13.883
  N        1.463    -518.961     -13.989
  N       -0.694    -519.628     -13.534
  C       -1.517    -520.703     -13.479
  C       -1.228    -522.018     -13.747
  C        0.144    -522.350     -14.081
  O        0.590    -523.485     -14.235
  N       -2.329    -522.824     -13.614
  C       -3.278    -521.989     -13.227
  N       -2.838    -520.694     -13.123
  O       -9.248    -522.027     -10.358
  O       -7.397    -523.537     -11.319
  H       -4.658    -516.771     -14.050
  H       -9.792    -522.802     -10.590
  H        1.908    -521.401     -14.404
  H       -4.295    -522.278     -13.007
  H       -2.871    -518.968     -12.007
  H       -3.663    -518.720     -14.693
  H        2.418    -519.114     -14.281
  H       -5.587    -520.169     -14.407
  H        1.166    -518.011     -13.797
  H       -6.215    -518.620     -11.839
  H       -7.965    -520.150     -12.366
  H       -6.834    -521.450     -12.809
  P       -6.656    -518.215     -15.948
  C       -4.947    -517.823     -17.861
  O       -5.226    -517.725     -16.480
  O       -7.602    -516.940     -16.162
  O       -7.209    -519.423     -16.624
  H       -8.168    -517.082     -16.940
  H       -4.250    -517.024     -18.138
  H       -5.857    -517.721     -18.475
  H       -4.484    -518.787     -18.074
  H       -5.904    -523.170      -7.497
  H       -5.341    -522.248      -8.869
  H       -5.759    -523.933      -9.062

 3  4  5  6  7  8  9  10  11  12  23  26  30  31 0
 6-311+G(2d,p)
 ****
 33  35  36  37  38 0
 6-311+G(2d,p)
 ****
 1  2  13  14  15  16  17  18  19  20  21  22  24  25 0
 3-21G
 ****
 27  28  29  32  34  39  40  41  42  43  44  45  46  47  48  49 0
 3-21G
 ****


