%nproc=1
%NoSave
%Mem=1900MB
#P OB98/GEN NMR

erre ene a

0 1
  C      -51.802     155.455     246.784
  O      -51.363     154.250     247.375
  H      -51.869     156.224     247.559
  H      -52.790     155.322     246.337
  H      -51.089     155.784     246.021
  P      -51.253     152.971     246.414
  C      -53.559     152.036     247.164
  O      -52.157     151.821     247.076
  C      -54.212     150.871     247.909
  O      -54.236     149.701     247.065
  C      -53.463     150.445     249.169
  O      -53.716     151.306     250.261
  C      -54.027     149.051     249.376
  O      -55.277     149.086     250.078
  C      -54.212     148.545     247.927
  N      -53.178     147.588     247.537
  C      -53.308     146.313     248.070
  O      -54.222     145.984     248.826
  N      -52.322     145.422     247.739
  C      -51.224     145.694     246.974
  O      -50.333     144.873     246.774
  C      -51.146     147.061     246.427
  C      -52.101     147.935     246.737
  O      -49.754     152.464     246.655
  O      -51.535     153.236     244.974
  H      -49.188     152.732     245.908
  H      -55.571     148.159     250.162
  H      -52.394     144.492     248.126
  H      -50.290     147.304     245.812
  H      -52.064     148.953     246.363
  H      -55.186     148.050     247.819
  H      -53.354     148.428     249.969
  H      -52.387     150.369     248.961
  H      -55.244     151.151     248.153
  H      -53.983     152.096     246.158
  H      -53.745     152.982     247.684
  P      -52.593     151.456     251.397
  C      -54.122     150.166     253.103
  O      -53.345     151.317     252.808
  O      -52.254     153.017     251.291
  O      -51.427     150.543     251.215
  H      -53.029     153.566     251.083
  H      -54.540     150.259     254.084
  H      -53.501     149.296     253.061
  H      -54.911     150.075     252.386

 6  7  8  9  10  11  12  13  14  15  16  27  31  32  33  34  35 0
 6-311+G(2d,p)
 ****
 36  37 0
 6-311+G(2d,p)
 ****
 1  2  3  4  5  17  18  19  20  21  22  23  24  25 0
 3-21G
 ****
 26  28  29  30  38  39  40  41  42  43  44  45 0
 3-21G
 ****


