%nproc=1
%NoSave
%Mem=1900MB
#P OB98/GEN NMR

erre ene a

0 1
  C     -157.846    -141.735    -270.452
  O     -157.437    -141.001    -271.609
  P     -158.275    -139.669    -271.936
  C     -160.023    -141.039    -273.283
  O     -159.789    -140.101    -272.243
  C     -161.468    -140.948    -273.783
  O     -162.003    -139.617    -273.677
  C     -161.625    -141.351    -275.246
  O     -161.638    -142.761    -275.362
  C     -162.961    -140.707    -275.597
  O     -164.068    -141.545    -275.208
  C     -162.944    -139.417    -274.762
  N     -164.701    -135.629    -277.644
  C     -165.342    -136.770    -277.189
  N     -166.639    -136.907    -277.534
  N     -164.757    -137.690    -276.469
  C     -163.461    -137.418    -276.193
  C     -162.726    -136.312    -276.563
  C     -163.379    -135.304    -277.366
  O     -162.865    -134.267    -277.770
  N     -161.453    -136.361    -276.049
  C     -161.385    -137.556    -275.484
  N     -162.596    -138.206    -275.487
  O     -157.703    -139.217    -273.363
  O     -158.109    -138.597    -270.912
  H     -164.172    -142.266    -275.861
  H     -157.176    -138.401    -273.263
  H     -165.195    -134.957    -278.204
  H     -160.497    -137.977    -275.037
  H     -163.923    -139.224    -274.304
  H     -163.065    -140.547    -276.672
  H     -167.151    -136.239    -278.088
  H     -160.824    -140.907    -275.846
  H     -167.129    -137.730    -277.209
  H     -162.073    -141.613    -273.150
  H     -159.815    -142.051    -272.925
  H     -159.317    -140.843    -274.098
  P     -160.292    -143.488    -275.846
  C     -160.379    -142.081    -278.029
  O     -159.603    -142.541    -276.944
  O     -160.835    -144.734    -276.695
  O     -159.401    -143.936    -274.737
  H     -160.321    -145.534    -276.463
  H     -159.996    -141.113    -278.354
  H     -161.435    -141.973    -277.759
  H     -160.292    -142.794    -278.860
  H     -157.220    -142.595    -270.336
  H     -158.863    -142.047    -270.568
  H     -157.761    -141.112    -269.586

 3  4  5  6  7  8  9  10  11  12  23  26  30  31 0
 6-311+G(2d,p)
 ****
 33  35  36  37  38 0
 6-311+G(2d,p)
 ****
 1  2  13  14  15  16  17  18  19  20  21  22  24  25 0
 3-21G
 ****
 27  28  29  32  34  39  40  41  42  43  44  45  46  47  48  49 0
 3-21G
 ****


