%nproc=1
%NoSave
%Mem=1900MB
#P OB98/GEN NMR

erre ene a

0 1
  C      227.593     -55.795    -727.995
  O      227.356     -57.112    -728.479
  P      227.987     -57.545    -729.883
  C      229.459     -59.432    -728.922
  O      229.434     -58.181    -729.610
  C      230.897     -59.820    -728.552
  O      231.527     -58.807    -727.742
  C      230.985     -61.094    -727.740
  O      230.754     -62.235    -728.562
  C      232.378     -60.995    -727.147
  O      233.377     -61.428    -728.095
  C      232.514     -59.469    -726.912
  N      232.368     -59.090    -725.518
  C      233.532     -59.168    -724.733
  O      234.579     -59.587    -725.232
  N      233.467     -58.802    -723.414
  C      232.339     -58.393    -722.907
  N      232.327     -58.034    -721.598
  C      231.088     -58.298    -723.692
  C      231.173     -58.665    -724.977
  O      227.943     -56.508    -730.964
  O      227.115     -58.837    -730.289
  H      234.236     -61.157    -727.724
  H      227.065     -58.888    -731.261
  H      230.176     -57.944    -723.230
  H      230.312     -58.625    -725.624
  H      233.494     -59.103    -727.254
  H      232.497     -61.596    -726.255
  H      230.236     -61.072    -726.923
  H      231.469     -59.929    -729.493
  H      233.202     -58.115    -721.080
  H      229.018     -60.209    -729.559
  H      231.522     -57.648    -721.136
  H      228.829     -59.353    -728.029
  P      229.240     -62.740    -728.733
  C      229.069     -61.975    -731.207
  O      228.568     -61.866    -729.893
  O      228.522     -62.210    -727.399
  O      229.081     -64.221    -728.872
  H      227.841     -62.836    -727.119
  H      228.331     -61.578    -731.902
  H      229.288     -63.014    -731.467
  H      229.983     -61.380    -731.304
  H      227.105     -55.669    -727.051
  H      227.207     -55.083    -728.694
  H      228.645     -55.643    -727.875

 3  4  5  6  7  8  9  10  11  12  13  23  27  28  29  30  32 0
 6-311+G(2d,p)
 ****
 34  35 0
 6-311+G(2d,p)
 ****
 1  2  14  15  16  17  18  19  20  21  22  24  25  26 0
 3-21G
 ****
 31  33  36  37  38  39  40  41  42  43  44  45  46 0
 3-21G
 ****


