%nproc=1
%NoSave
%Mem=1900MB
#P OB98/GEN NMR

erre ene a

0 1
  C       51.802     -58.689      10.922
  O       50.659     -58.978      10.117
  P       50.016     -60.445      10.167
  C       49.573     -61.018       7.693
  O       49.008     -60.614       8.931
  C       48.756     -60.474       6.510
  O       47.579     -61.302       6.306
  C       48.286     -59.028       6.719
  O       48.598     -58.173       5.620
  C       46.811     -59.178       7.045
  O       46.059     -58.007       6.767
  C       46.422     -60.447       6.277
  N       45.239     -61.094       6.851
  C       44.065     -60.352       6.865
  O       44.006     -59.180       6.494
  N       42.963     -60.979       7.379
  C       42.941     -62.221       7.941
  O       41.937     -62.721       8.431
  C       44.226     -62.936       7.958
  C       45.298     -62.349       7.421
  O       49.472     -60.871      11.489
  O       51.245     -61.387       9.735
  H       45.110     -58.254       6.713
  H       51.204     -62.200      10.274
  H       42.099     -60.459       7.379
  H       44.252     -63.913       8.416
  H       46.259     -62.845       7.431
  H       46.191     -60.217       5.232
  H       46.714     -59.375       8.121
  H       48.797     -58.563       7.568
  H       49.387     -60.546       5.619
  H       49.591     -62.107       7.639
  H       50.618     -60.691       7.647
  P       49.964     -57.355       5.467
  C       49.350     -54.894       4.939
  O       49.721     -56.159       4.432
  O       51.185     -58.172       5.208
  O       50.093     -56.602       6.877
  H       51.025     -56.616       7.163
  H       48.875     -54.323       4.137
  H       50.243     -54.359       5.271
  H       48.646     -54.988       5.769
  H       52.099     -57.673      10.768
  H       52.605     -59.341      10.648
  H       51.559     -58.837      11.953

 3  4  5  6  7  8  9  10  11  12  13  23  28  29  30  31  32 0
 6-311+G(2d,p)
 ****
 33  34 0
 6-311+G(2d,p)
 ****
 1  2  14  15  16  17  18  19  20  21  22  24  25  26  27 0
 3-21G
 ****
 35  36  37  38  39  40  41  42  43  44  45 0
 3-21G
 ****


