%nproc=1
%NoSave
%Mem=1900MB
#P OB98/GEN NMR

erre ene a

0 1
  C     1121.809     654.453    -899.166
  O     1123.115     653.988    -898.806
  P     1123.843     654.690    -897.586
  C     1122.889     652.744    -896.106
  O     1123.219     654.105    -896.206
  C     1122.193     652.438    -894.746
  O     1123.162     652.610    -893.696
  C     1121.015     653.372    -894.376
  O     1120.235     652.741    -893.386
  C     1121.758     654.573    -893.796
  O     1120.847     655.376    -892.996
  C     1122.923     653.900    -893.056
  N     1124.156     654.706    -893.016
  C     1124.450     655.455    -891.866
  O     1123.730     655.490    -890.886
  N     1125.562     656.217    -891.916
  C     1126.491     656.285    -892.946
  O     1127.419     657.065    -892.986
  C     1126.218     655.378    -894.076
  C     1125.093     654.620    -894.086
  O     1123.275     656.222    -897.636
  O     1125.338     654.651    -897.646
  H     1121.429     656.062    -892.566
  H     1123.957     656.817    -897.996
  H     1125.756     656.838    -891.106
  H     1126.908     655.326    -894.866
  H     1124.867     653.969    -894.906
  H     1122.643     653.701    -891.986
  H     1122.141     655.196    -894.616
  H     1120.385     653.641    -895.246
  H     1121.874     651.393    -894.736
  H     1123.770     652.127    -896.226
  H     1122.213     652.456    -896.926
  P     1119.315     651.467    -893.826
  C     1120.616     649.769    -892.376
  O     1120.234     650.191    -893.676
  O     1118.542     651.640    -895.086
  O     1118.325     651.336    -892.546
  H     1117.541     650.830    -892.796
  H     1120.756     648.643    -892.366
  H     1119.836     650.031    -891.626
  H     1121.543     650.253    -892.086
  H     1121.447     653.889    -900.000
  H     1121.859     655.489    -899.430
  H     1121.145     654.329    -898.336

 3  4  5  6  7  8  9  10  11  12  13  23  28  29  30  31  32 0
 6-311+G(2d,p)
 ****
 33  34 0
 6-311+G(2d,p)
 ****
 1  2  14  15  16  17  18  19  20  21  22  24  25  26  27 0
 3-21G
 ****
 35  36  37  38  39  40  41  42  43  44  45 0
 3-21G
 ****


