%nproc=1
%NoSave
%Mem=1900MB
#P OB98/GEN NMR

erre ene a

0 1
  C       62.128     -58.333     101.811
  O       61.154     -58.534     102.837
  P       61.673     -59.180     104.212
  C       63.093     -57.170     105.025
  O       61.962     -57.995     105.257
  C       62.950     -55.800     105.702
  O       61.772     -55.103     105.218
  C       62.832     -55.884     107.227
  O       63.468     -54.725     107.769
  C       61.337     -55.771     107.461
  O       61.053     -55.353     108.793
  C       60.953     -54.770     106.359
  N       59.528     -54.795     106.029
  C       58.639     -54.380     107.023
  O       59.056     -54.079     108.143
  N       57.297     -54.354     106.741
  C       56.874     -54.761     105.584
  N       55.532     -54.714     105.367
  C       57.773     -55.264     104.526
  C       59.072     -55.248     104.814
  O       63.132     -59.722     103.838
  O       60.798     -60.278     104.724
  H       61.561     -54.531     108.970
  H       63.230     -60.647     104.131
  H       57.373     -55.612     103.586
  H       59.808     -55.594     104.103
  H       61.207     -53.745     106.664
  H       60.852     -56.739     107.288
  H       63.279     -56.787     107.652
  H       63.823     -55.195     105.433
  H       54.949     -54.355     106.114
  H       63.231     -57.023     103.952
  H       55.094     -55.008     104.506
  H       63.990     -57.689     105.378
  P       64.959     -54.874     108.341
  C       66.460     -54.890     106.257
  O       65.883     -54.103     107.280
  O       65.286     -56.406     107.989
  O       65.200     -54.585     109.784
  H       66.155     -56.648     108.354
  H       66.957     -54.226     105.542
  H       65.690     -55.461     105.732
  H       67.208     -55.567     106.681
  H       61.658     -57.900     100.953
  H       62.563     -59.273     101.543
  H       62.893     -57.676     102.169

 3  4  5  6  7  8  9  10  11  12  13  21  23  27  28  29  30  32 0
 6-311+G(2d,p)
 ****
 34  35 0
 6-311+G(2d,p)
 ****
 1  2  14  15  16  17  18  19  20  22  24  25  26 0
 3-21G
 ****
 31  33  36  37  38  39  40  41  42  43  44  45  46 0
 3-21G
 ****


