%nproc=1
%NoSave
%Mem=1900MB
#P OB98/GEN NMR

erre ene a

0 1
  C     -361.259    -328.229    -122.205
  O     -362.030    -328.402    -121.025
  P     -363.135    -327.287    -120.688
  C     -364.814    -328.725    -119.255
  O     -363.789    -327.733    -119.297
  C     -364.901    -329.324    -117.849
  O     -363.802    -330.230    -117.629
  C     -364.826    -328.309    -116.721
  O     -366.051    -327.617    -116.548
  C     -364.433    -329.207    -115.544
  O     -365.588    -329.883    -115.026
  C     -363.484    -330.209    -116.219
  N     -362.067    -329.908    -116.005
  C     -361.316    -330.901    -115.380
  O     -361.788    -331.980    -115.021
  N     -359.995    -330.604    -115.163
  C     -359.384    -329.411    -115.439
  O     -358.209    -329.183    -115.182
  C     -360.240    -328.391    -116.064
  C     -361.519    -328.684    -116.318
  O     -364.240    -327.624    -121.790
  O     -362.589    -325.896    -120.736
  H     -364.214    -328.558    -122.059
  H     -366.200    -329.187    -114.710
  H     -359.425    -331.317    -114.732
  H     -359.789    -327.431    -116.292
  H     -362.164    -327.937    -116.769
  H     -363.675    -331.223    -115.852
  H     -363.983    -328.642    -114.720
  H     -364.024    -327.589    -116.917
  H     -365.833    -329.905    -117.785
  H     -364.579    -329.508    -119.975
  H     -365.764    -328.261    -119.537
  P     -365.945    -326.047    -116.213
  C     -368.550    -325.913    -115.986
  O     -367.283    -325.665    -115.410
  O     -366.159    -325.403    -117.662
  O     -364.670    -325.659    -115.543
  H     -366.865    -325.839    -118.174
  H     -369.298    -325.937    -115.189
  H     -368.569    -326.867    -116.512
  H     -368.799    -325.102    -116.678
  H     -360.568    -329.040    -122.302
  H     -360.720    -327.307    -122.147
  H     -361.908    -328.210    -123.055

 3  4  5  6  7  8  9  10  11  12  13  24  28  29  30  31  32 0
 6-311+G(2d,p)
 ****
 33  34 0
 6-311+G(2d,p)
 ****
 1  2  14  15  16  17  18  19  20  21  22  23  25  26  27 0
 3-21G
 ****
 35  36  37  38  39  40  41  42  43  44  45 0
 3-21G
 ****


