%nproc=1
%NoSave
%Mem=1900MB
#P OB98/GEN NMR

erre ene a

0 1
  C     -180.807     -36.313     -39.967
  O     -180.855     -35.361     -41.013
  H     -179.770     -36.587     -39.754
  H     -181.248     -35.873     -39.067
  H     -181.379     -37.205     -40.242
  P     -180.223     -35.802     -42.421
  C     -182.363     -36.621     -43.653
  O     -181.174     -36.978     -42.961
  C     -182.718     -37.728     -44.644
  O     -182.578     -39.025     -44.016
  C     -184.158     -37.665     -45.146
  O     -184.322     -36.738     -46.207
  C     -184.352     -39.093     -45.627
  O     -183.693     -39.275     -46.895
  C     -183.625     -39.891     -44.532
  N     -186.635     -43.614     -42.710
  C     -185.857     -43.544     -43.811
  N     -185.069     -42.524     -44.215
  C     -185.126     -41.505     -43.343
  C     -185.869     -41.437     -42.171
  C     -186.659     -42.557     -41.864
  N     -187.477     -42.625     -40.758
  N     -185.683     -40.217     -41.548
  C     -184.832     -39.571     -42.320
  N     -184.490     -40.293     -43.434
  O     -178.885     -36.581     -42.011
  O     -179.981     -34.702     -43.402
  H     -184.138     -38.685     -47.535
  H     -178.308     -36.699     -42.791
  H     -185.871     -44.418     -44.460
  H     -184.443     -38.578     -42.123
  H     -183.146     -40.801     -44.917
  H     -185.404     -39.352     -45.770
  H     -184.860     -37.466     -44.329
  H     -182.007     -37.685     -45.481
  H     -182.196     -35.684     -44.193
  H     -188.115     -43.404     -40.701
  H     -187.612     -41.790     -40.202
  H     -183.177     -36.483     -42.934
  P     -185.761     -36.041     -46.362
  C     -185.072     -33.784     -45.265
  O     -185.871     -34.959     -45.176
  O     -186.771     -37.194     -45.904
  O     -186.062     -35.535     -47.733
  H     -187.615     -37.130     -46.384
  H     -185.252     -33.165     -44.411
  H     -185.326     -33.247     -46.155
  H     -184.038     -34.057     -45.296

 6  7  8  9  10  11  12  13  14  15  25  28  32  33  34  35 0
 6-311+G(2d,p)
 ****
 36  39  40 0
 6-311+G(2d,p)
 ****
 1  2  3  4  5  16  17  18  19  20  21  22  23  24 0
 3-21G
 ****
 26  27  29  30  31  37  38  41  42  43  44  45  46  47 0
 3-21G
 ****
 48 0
 3-21G
 ****


