%nproc=1
%NoSave
%Mem=1900MB
#P OB98/GEN NMR

erre ene a

0 1
  C      215.170      83.227    -109.016
  O      214.413      82.025    -108.962
  P      213.672      81.551    -110.306
  C      211.948      82.741    -111.899
  O      212.594      82.690    -110.635
  C      210.484      83.161    -111.727
  O      209.792      82.203    -110.896
  C      210.287      84.512    -111.048
  O      210.539      85.590    -111.929
  C      208.840      84.395    -110.578
  O      207.939      84.669    -111.664
  C      208.750      82.905    -110.181
  N      208.864      82.686    -108.735
  C      207.760      82.100    -108.119
  O      206.739      81.779    -108.726
  N      207.863      81.919    -106.763
  C      208.910      82.310    -105.975
  O      208.933      82.161    -104.758
  C      210.032      82.950    -106.680
  C      209.958      83.106    -108.008
  O      212.812      80.322    -109.746
  O      214.616      81.211    -111.411
  H      212.601      80.431    -108.802
  H      208.227      85.516    -112.057
  H      207.086      81.473    -106.293
  H      210.876      83.283    -106.090
  H      210.770      83.584    -108.544
  H      207.804      82.476    -110.525
  H      208.599      85.094    -109.766
  H      210.948      84.586    -110.177
  H      210.005      83.155    -112.719
  H      211.995      81.754    -112.367
  H      212.478      83.455    -112.544
  P      210.948      86.996    -111.252
  C      209.622      88.794    -109.893
  O      209.588      87.634    -110.699
  O      211.298      87.874    -112.547
  O      212.059      86.881    -110.259
  H      210.667      87.743    -113.278
  H      208.637      89.266    -109.918
  H      210.367      89.508    -110.257
  H      209.854      88.516    -108.861
  H      215.604      83.418    -108.057
  H      214.529      84.040    -109.286
  H      215.946      83.127    -109.745

 3  4  5  6  7  8  9  10  11  12  13  24  28  29  30  31  32 0
 6-311+G(2d,p)
 ****
 33  34 0
 6-311+G(2d,p)
 ****
 1  2  14  15  16  17  18  19  20  21  22  23  25  26  27 0
 3-21G
 ****
 35  36  37  38  39  40  41  42  43  44  45 0
 3-21G
 ****


