%nproc=1
%NoSave
%Mem=1900MB
#P OB98/GEN NMR

erre ene a

0 1
  C      615.397     293.773    -397.784
  O      615.607     292.660    -396.926
  P      615.429     291.156    -397.455
  C      613.093     290.930    -396.403
  O      613.842     290.960    -397.607
  C      611.601     290.782    -396.708
  O      611.213     291.853    -397.600
  C      611.200     289.493    -397.436
  O      610.989     288.382    -396.581
  C      609.866     289.924    -398.041
  O      608.834     289.881    -397.032
  C      610.148     291.369    -398.453
  N      608.507     291.586    -403.304
  C      607.845     291.508    -402.126
  N      608.355     291.430    -400.875
  C      609.701     291.497    -400.911
  C      610.508     291.581    -402.023
  C      609.857     291.629    -403.281
  N      610.536     291.731    -404.475
  N      611.846     291.595    -401.667
  C      611.826     291.536    -400.351
  N      610.554     291.482    -399.844
  O      616.131     290.129    -396.647
  O      615.934     291.209    -398.972
  H      608.018     290.206    -397.452
  H      616.109     290.309    -399.297
  H      606.760     291.491    -402.188
  H      612.705     291.527    -399.725
  H      609.285     292.025    -398.305
  H      609.537     289.260    -398.857
  H      611.898     289.253    -398.241
  H      611.038     290.895    -395.773
  H      613.257     291.874    -395.868
  H      609.985     291.888    -405.301
  H      611.529     291.922    -404.446
  H      613.447     290.109    -395.768
  P      611.592     286.965    -397.058
  C      609.428     286.240    -398.337
  O      610.797     286.579    -398.396
  O      611.617     285.917    -396.003
  O      613.046     287.368    -397.600
  H      613.053     287.918    -398.399
  H      609.036     286.174    -399.353
  H      608.860     287.003    -397.799
  H      609.304     285.267    -397.847
  H      615.566     294.679    -397.241
  H      614.391     293.758    -398.148
  H      616.076     293.720    -398.609

 3  4  5  6  7  8  9  10  11  12  22  25  29  30  31  32 0
 6-311+G(2d,p)
 ****
 33  36  37 0
 6-311+G(2d,p)
 ****
 1  2  13  14  15  16  17  18  19  20  21  23  24  26 0
 3-21G
 ****
 27  28  34  35  38  39  40  41  42  43  44  45  46  47  48 0
 3-21G
 ****


