%nproc=1
%NoSave
%Mem=1900MB
#P OB98/GEN NMR

erre ene a

0 1
  C     -174.569       4.803     -68.804
  O     -173.171       5.022     -68.707
  P     -172.565       6.379     -69.305
  C     -171.743       7.208     -71.629
  O     -172.373       6.176     -70.886
  C     -172.184       7.155     -73.093
  O     -173.648       7.158     -73.158
  C     -171.692       8.338     -73.943
  O     -171.454       7.847     -75.275
  C     -172.895       9.262     -73.951
  O     -172.867      10.207     -75.011
  C     -174.023       8.233     -74.042
  N     -175.334       8.790     -73.684
  C     -176.153       9.215     -74.721
  O     -175.839       9.153     -75.914
  N     -177.338       9.790     -74.353
  C     -177.742      10.050     -73.077
  O     -178.763      10.670     -72.812
  C     -176.834       9.580     -72.012
  C     -175.694       8.978     -72.362
  O     -171.066       6.389     -68.735
  O     -173.315       7.615     -68.925
  H     -172.023      10.691     -74.946
  H     -171.000       6.981     -67.962
  H     -177.949      10.091     -75.095
  H     -177.131       9.752     -70.989
  H     -174.995       8.632     -71.604
  H     -174.071       7.808     -75.059
  H     -172.934       9.820     -73.007
  H     -170.790       8.815     -73.548
  H     -171.841       6.202     -73.531
  H     -170.662       7.077     -71.577
  H     -171.995       8.185     -71.191
  P     -170.256       8.512     -76.117
  C     -169.911      10.810     -77.311
  O     -170.747       9.979     -76.535
  O     -170.349       7.670     -77.480
  O     -168.924       8.418     -75.442
  H     -171.268       7.546     -77.786
  H     -169.317      10.234     -78.025
  H     -169.242      11.366     -76.654
  H     -170.536      11.525     -77.863
  H     -174.814       3.860     -68.362
  H     -174.859       4.800     -69.834
  H     -175.089       5.584     -68.289

 3  4  5  6  7  8  9  10  11  12  13  23  28  29  30  31  32 0
 6-311+G(2d,p)
 ****
 33  34 0
 6-311+G(2d,p)
 ****
 1  2  14  15  16  17  18  19  20  21  22  24  25  26 0
 3-21G
 ****
 27  35  36  37  38  39  40  41  42  43  44  45 0
 3-21G
 ****


