%nproc=1
%NoSave
%Mem=1900MB
#P OB98/GEN NMR

erre ene a

0 1
  C      779.994    -894.820    -296.995
  O      779.133    -894.040    -297.806
  H      779.671    -894.730    -295.944
  H      781.024    -894.480    -297.079
  H      779.922    -895.880    -297.284
  P      779.472    -893.920    -299.369
  C      777.259    -894.680    -300.465
  O      778.563    -895.050    -300.055
  C      776.973    -895.220    -301.870
  O      777.870    -894.650    -302.835
  C      777.156    -896.740    -302.018
  O      776.109    -897.490    -301.426
  C      777.165    -896.840    -303.532
  O      775.823    -896.720    -304.043
  C      778.029    -895.610    -303.908
  N      779.422    -895.940    -304.125
  C      780.132    -895.120    -305.012
  O      779.595    -894.180    -305.570
  N      781.455    -895.410    -305.274
  C      782.010    -896.440    -304.707
  N      783.305    -896.710    -305.031
  C      781.313    -897.320    -303.744
  C      780.036    -897.010    -303.516
  O      780.916    -893.940    -299.734
  O      778.724    -892.580    -299.828
  H      775.865    -896.870    -304.999
  H      778.898    -892.460    -300.789
  H      781.808    -898.160    -303.329
  H      779.450    -897.620    -302.837
  H      777.629    -895.150    -304.823
  H      777.563    -897.800    -303.885
  H      778.125    -897.060    -301.640
  H      775.944    -894.920    -302.146
  H      783.738    -896.110    -305.719
  H      777.182    -893.590    -300.432
  H      783.709    -897.620    -304.854
  H      776.517    -895.100    -299.770
  P      776.373    -899.050    -301.134
  C      777.898    -899.000    -299.027
  O      777.815    -899.170    -300.426
  O      776.636    -899.640    -302.604
  O      775.275    -899.780    -300.402
  H      775.808    -900.000    -302.979
  H      778.915    -899.109    -298.714
  H      777.295    -899.738    -298.542
  H      777.547    -898.024    -298.765

 6  7  8  9  10  11  12  13  14  15  16  26  30  31  32  33  35 0
 6-311+G(2d,p)
 ****
 37  38 0
 6-311+G(2d,p)
 ****
 1  2  3  4  5  17  18  19  20  21  22  23  24  25 0
 3-21G
 ****
 27  28  29  34  36  39  40  41  42  43  44  45  46 0
 3-21G
 ****


