%nproc=1
%NoSave
%Mem=1900MB
#P OB98/GEN NMR

erre ene a

0 1
  C       40.707     128.468    -281.755
  O       39.657     127.528    -281.650
  H       40.843     128.727    -282.809
  H       41.637     128.039    -281.374
  H       40.459     129.377    -281.198
  P       39.316     127.001    -280.172
  C       40.735     124.856    -280.515
  O       40.530     126.036    -279.752
  C       41.801     123.981    -279.864
  O       43.120     124.537    -280.077
  C       41.642     123.807    -278.358
  O       40.701     122.789    -278.059
  C       43.060     123.434    -277.949
  O       43.330     122.039    -278.191
  C       43.904     124.323    -278.874
  N       47.331     126.695    -276.025
  C       47.296     125.394    -276.479
  N       48.302     124.590    -276.065
  N       46.361     124.918    -277.255
  C       45.405     125.829    -277.559
  C       45.335     127.152    -277.185
  C       46.397     127.673    -276.350
  O       46.519     128.833    -275.969
  N       44.224     127.758    -277.709
  C       43.601     126.793    -278.363
  N       44.271     125.601    -278.287
  O       38.105     125.979    -280.410
  O       38.958     128.056    -279.183
  H       42.596     121.506    -277.841
  H       37.527     125.981    -279.624
  H       48.087     127.009    -275.443
  H       42.671     126.910    -278.902
  H       44.836     123.835    -279.176
  H       43.230     123.605    -276.885
  H       48.837     124.795    -275.233
  H       41.363     124.756    -277.885
  H       48.272     123.627    -276.375
  H       41.779     123.006    -280.368
  H       41.065     125.136    -281.521
  H       39.791     124.306    -280.589
  P       39.652     123.069    -276.875
  C       41.061     121.802    -275.090
  O       40.492     123.037    -275.509
  O       38.798     121.718    -276.809
  O       38.792     124.273    -277.076
  H       37.965     121.872    -276.321
  H       41.586     121.945    -274.169
  H       41.742     121.451    -275.837
  H       40.283     121.081    -274.949

 6  7  8  9  10  11  12  13  14  15  26  29  33  34 0
 6-311+G(2d,p)
 ****
 36  38  39  40  41 0
 6-311+G(2d,p)
 ****
 1  2  3  4  5  16  17  18  19  20  21  22  23  24  25 0
 3-21G
 ****
 27  28  30  31  32  35  37  42  43  44  45  46  47 0
 3-21G
 ****
 48  49 0
 3-21G
 ****


