%nproc=1
%NoSave
%Mem=1900MB
#P OB98/GEN NMR

erre ene a

0 1
  C       -8.389     -23.029     -99.434
  O       -9.221     -22.537    -100.471
  P      -10.681     -23.140    -100.707
  C      -12.657     -22.626    -102.358
  O      -11.439     -22.224    -101.770
  C      -12.801     -21.938    -103.722
  O      -12.962     -20.515    -103.547
  C      -11.574     -22.170    -104.600
  O      -11.777     -23.279    -105.461
  C      -11.440     -20.850    -105.336
  O      -12.341     -20.805    -106.457
  C      -11.884     -19.841    -104.250
  N      -10.887     -19.411    -103.252
  C       -9.757     -18.711    -103.665
  O       -9.540     -18.392    -104.829
  N       -8.854     -18.404    -102.677
  C       -8.998     -18.685    -101.350
  O       -8.092     -18.626    -100.527
  C      -10.319     -19.173    -100.946
  C      -11.180     -19.530    -101.900
  O      -11.434     -22.810     -99.334
  O      -10.730     -24.595    -101.038
  H      -13.245     -20.881    -106.102
  H      -11.442     -23.592     -98.750
  H       -7.968     -18.021    -102.990
  H      -10.528     -19.278     -99.890
  H      -12.152     -19.932    -101.625
  H      -12.298     -18.935    -104.704
  H      -10.439     -20.727    -105.745
  H      -10.683     -22.315    -103.976
  H      -13.702     -22.320    -104.218
  H      -13.495     -22.360    -101.705
  H      -12.674     -23.714    -102.480
  P      -10.523     -24.153    -105.933
  C       -9.976     -26.657    -105.937
  O      -10.855     -25.652    -105.471
  O       -9.184     -23.636    -105.519
  O      -10.679     -24.187    -107.527
  H      -10.102     -23.508    -107.932
  H      -10.201     -27.589    -105.415
  H       -8.936     -26.379    -105.740
  H      -10.124     -26.808    -107.010
  H       -7.459     -22.499     -99.441
  H       -8.206     -24.072     -99.588
  H       -8.873     -22.887     -98.490

 3  4  5  6  7  8  9  10  11  12  13  23  28  29  30  31  32 0
 6-311+G(2d,p)
 ****
 33  34 0
 6-311+G(2d,p)
 ****
 1  2  14  15  16  17  18  19  20  21  22  24  25  26  27 0
 3-21G
 ****
 35  36  37  38  39  40  41  42  43  44  45 0
 3-21G
 ****


