%nproc=1
%NoSave
%Mem=1900MB
#P OB98/GEN NMR

erre ene a

0 1
  C     -829.430    -237.221    -582.400
  O     -829.064    -238.259    -583.282
  P     -830.192    -239.107    -584.054
  C     -828.083    -240.474    -584.624
  O     -829.409    -240.132    -585.012
  C     -827.655    -241.769    -585.312
  O     -828.361    -242.907    -584.767
  C     -827.966    -241.813    -586.801
  O     -827.270    -240.912    -587.641
  C     -827.795    -243.296    -587.095
  O     -826.419    -243.643    -587.268
  C     -828.357    -243.930    -585.798
  N     -829.685    -244.504    -585.997
  C     -829.773    -245.537    -586.919
  O     -828.807    -245.963    -587.555
  N     -831.029    -246.048    -587.129
  C     -832.181    -245.601    -586.550
  O     -833.279    -246.083    -586.819
  C     -832.029    -244.504    -585.593
  C     -830.812    -244.003    -585.357
  O     -831.242    -238.294    -584.737
  O     -830.763    -240.082    -582.919
  H     -826.080    -243.110    -588.009
  H     -830.102    -240.681    -582.517
  H     -831.112    -246.789    -587.813
  H     -832.924    -244.140    -585.101
  H     -830.673    -243.187    -584.652
  H     -827.687    -244.731    -585.441
  H     -828.322    -243.591    -588.008
  H     -829.024    -241.578    -586.941
  H     -826.590    -241.923    -585.116
  H     -828.054    -240.619    -583.546
  H     -827.403    -239.643    -584.874
  P     -827.862    -239.489    -588.084
  C     -826.878    -239.503    -590.483
  O     -826.913    -238.877    -589.215
  O     -828.297    -238.569    -586.987
  O     -829.151    -239.924    -588.934
  H     -829.842    -239.240    -588.838
  H     -826.149    -238.984    -591.108
  H     -827.857    -239.447    -590.960
  H     -826.560    -240.546    -590.379
  H     -828.549    -236.778    -581.986
  H     -830.033    -237.619    -581.611
  H     -829.986    -236.479    -582.934

 3  4  5  6  7  8  9  10  11  12  13  23  28  29  30  31  32 0
 6-311+G(2d,p)
 ****
 33  34 0
 6-311+G(2d,p)
 ****
 1  2  14  15  16  17  18  19  20  21  22  24  25  26  27 0
 3-21G
 ****
 35  36  37  38  39  40  41  42  43  44  45 0
 3-21G
 ****


