%nproc=1
%NoSave
%Mem=1900MB
#P OB98/GEN NMR

erre ene a

0 1
  C      103.081     394.847    -146.585
  O      103.003     394.959    -147.993
  H      102.293     395.444    -146.118
  H      102.940     393.799    -146.309
  H      104.062     395.177    -146.231
  P      103.215     396.426    -148.608
  C      105.565     395.819    -149.521
  O      104.802     396.659    -148.672
  C      106.651     396.628    -150.225
  O      107.414     397.383    -149.259
  C      107.674     395.797    -150.993
  O      107.176     395.389    -152.258
  C      108.807     396.800    -151.136
  O      108.513     397.718    -152.207
  C      108.759     397.531    -149.785
  N      113.527     397.893    -147.961
  C      112.857     398.613    -148.891
  N      111.584     398.469    -149.308
  C      110.979     397.470    -148.645
  C      111.519     396.664    -147.657
  C      112.862     396.901    -147.318
  N      113.555     396.113    -146.412
  N      110.592     395.735    -147.221
  C      109.521     395.966    -147.949
  N      109.701     397.009    -148.816
  O      102.734     397.384    -147.413
  O      102.468     396.699    -149.872
  H      109.250     398.356    -152.242
  H      101.811     397.654    -147.572
  H      113.428     399.403    -149.365
  H      108.598     395.408    -147.884
  H      108.948     398.606    -149.891
  H      109.769     396.332    -151.367
  H      108.024     394.943    -150.401
  H      106.158     397.347    -150.891
  H      104.912     395.365    -150.273
  H      114.555     396.065    -146.597
  H      113.091     395.242    -146.174
  H      106.015     395.026    -148.918
  P      107.845     394.102    -152.946
  C      106.119     392.602    -151.740
  O      107.491     392.848    -152.002
  O      109.410     394.339    -152.695
  O      107.547     393.927    -154.395
  H      109.885     394.322    -153.549
  H      106.025     391.746    -151.105
  H      105.607     392.420    -152.662
  H      105.690     393.454    -151.256

 6  7  8  9  10  11  12  13  14  15  25  28  32  33  34  35 0
 6-311+G(2d,p)
 ****
 36  39  40 0
 6-311+G(2d,p)
 ****
 1  2  3  4  5  16  17  18  19  20  21  22  23  24 0
 3-21G
 ****
 26  27  29  30  31  37  38  41  42  43  44  45  46  47  48 0
 3-21G
 ****


