%nproc=1
%NoSave
%Mem=1900MB
#P OB98/GEN NMR

erre ene a

0 1
  C      481.108     553.864     323.281
  O      482.530     553.743     323.255
  P      483.230     553.055     324.526
  C      484.760     554.944     325.413
  O      484.687     553.708     324.720
  C      486.198     555.497     325.415
  O      487.044     554.720     326.317
  C      486.867     555.472     324.043
  O      487.742     556.608     323.966
  C      487.711     554.217     324.099
  O      488.751     554.235     323.114
  C      488.172     554.255     325.552
  N      492.240     551.529     327.003
  C      492.111     552.807     326.579
  N      490.996     553.454     326.187
  C      489.917     552.648     326.309
  C      489.896     551.325     326.718
  C      491.127     550.760     327.078
  N      491.264     549.449     327.477
  N      488.606     550.822     326.664
  C      487.874     551.828     326.230
  N      488.612     552.959     326.028
  O      483.542     551.570     324.009
  O      482.372     553.034     325.747
  H      489.295     553.432     323.236
  H      482.943     550.933     324.435
  H      493.029     553.381     326.540
  H      486.809     551.788     326.032
  H      489.005     554.957     325.711
  H      487.082     553.340     323.914
  H      486.174     555.475     323.196
  H      486.170     556.522     325.802
  H      484.420     554.818     326.443
  H      492.194     549.109     327.687
  H      490.454     548.851     327.487
  H      484.067     555.653     324.955
  P      487.112     557.956     323.369
  C      488.194     557.425     321.075
  O      488.021     558.361     322.121
  O      487.462     559.062     324.478
  O      485.645     557.881     323.105
  H      486.820     559.788     324.439
  H      488.166     557.955     320.118
  H      487.417     556.653     321.079
  H      489.176     556.948     321.180
  H      480.774     554.336     322.381
  H      480.816     554.455     324.124
  H      480.669     552.891     323.358

 3  4  5  6  7  8  9  10  11  12  22  25  29  30  31  32 0
 6-311+G(2d,p)
 ****
 33  36  37 0
 6-311+G(2d,p)
 ****
 1  2  13  14  15  16  17  18  19  20  21  23  24  26 0
 3-21G
 ****
 27  28  34  35  38  39  40  41  42  43  44  45  46  47  48 0
 3-21G
 ****


