%nproc=1
%NoSave
%Mem=1900MB
#P OB98/GEN NMR

erre ene a

0 1
  C      586.892     333.841     335.087
  O      587.504     332.811     334.331
  H      586.491     334.587     334.400
  H      587.636     334.322     335.735
  H      586.078     333.435     335.691
  P      588.252     331.663     335.170
  C      590.070     331.532     333.300
  O      589.067     330.854     334.047
  C      590.180     330.914     331.911
  O      590.795     329.605     331.990
  C      588.841     330.695     331.212
  O      588.309     331.885     330.648
  C      589.253     329.690     330.149
  O      589.953     330.369     329.089
  C      590.202     328.775     330.950
  N      589.526     327.623     331.538
  C      589.383     326.491     330.732
  O      589.797     326.494     329.570
  N      588.734     325.387     331.234
  C      588.283     325.402     332.449
  N      587.635     324.292     332.894
  C      588.427     326.561     333.354
  C      589.050     327.624     332.835
  O      587.073     330.638     335.546
  O      589.064     332.125     336.332
  H      590.282     329.682     328.481
  H      587.457     329.829     335.959
  H      588.021     326.542     334.347
  H      589.191     328.516     333.439
  H      591.020     328.413     330.315
  H      588.398     329.180     329.696
  H      588.113     330.219     331.878
  H      590.847     331.553     331.309
  H      587.497     323.531     332.242
  H      591.016     331.439     333.832
  H      587.098     324.279     333.754
  H      589.814     332.589     333.203
  P      586.725     332.090     330.699
  C      586.068     332.618     328.242
  O      586.354     333.129     329.533
  O      586.508     332.943     332.034
  O      585.920     330.820     330.700
  H      585.704     332.657     332.506
  H      585.841     333.428     327.580
  H      585.229     331.957     328.298
  H      586.919     332.084     327.873

 6  7  8  9  10  11  12  13  14  15  16  26  30  31  32  33  35 0
 6-311+G(2d,p)
 ****
 37  38 0
 6-311+G(2d,p)
 ****
 1  2  3  4  5  17  18  19  20  21  22  23  24  25 0
 3-21G
 ****
 27  28  29  34  36  39  40  41  42  43  44  45  46 0
 3-21G
 ****


