%nproc=1
%NoSave
%Mem=1900MB
#P OB98/GEN NMR

erre ene a

0 1
  C     -197.408    -322.031    -221.242
  O     -198.389    -321.369    -222.028
  P     -197.969    -320.571    -223.360
  C     -198.656    -318.333    -222.306
  O     -198.890    -319.248    -223.359
  C     -198.777    -316.890    -222.833
  O     -197.880    -316.749    -223.962
  C     -200.159    -316.478    -223.345
  O     -201.053    -316.027    -222.340
  C     -199.774    -315.302    -224.247
  O     -199.554    -314.126    -223.440
  C     -198.479    -315.788    -224.880
  N     -198.751    -314.966    -229.927
  C     -198.502    -314.143    -228.883
  N     -198.466    -314.436    -227.571
  C     -198.668    -315.754    -227.362
  C     -198.931    -316.722    -228.321
  C     -198.969    -316.284    -229.668
  N     -199.196    -317.129    -230.726
  N     -199.105    -317.949    -227.732
  C     -198.948    -317.725    -226.432
  N     -198.671    -316.411    -226.175
  O     -198.001    -321.386    -224.609
  O     -196.521    -319.988    -223.029
  H     -198.790    -314.305    -222.856
  H     -196.071    -319.725    -223.863
  H     -198.314    -313.100    -229.148
  H     -199.021    -318.484    -225.661
  H     -197.744    -314.969    -225.003
  H     -200.573    -315.041    -224.955
  H     -200.606    -317.275    -223.962
  H     -198.438    -316.211    -222.035
  H     -197.648    -318.484    -221.925
  H     -199.075    -316.768    -231.651
  H     -199.195    -318.134    -230.541
  H     -199.367    -318.500    -221.484
  P     -202.347    -316.946    -222.056
  C     -203.831    -314.822    -221.636
  O     -203.329    -316.052    -221.144
  O     -202.048    -318.304    -221.520
  O     -203.091    -316.966    -223.474
  H     -203.453    -316.119    -223.769
  H     -204.592    -314.455    -220.939
  H     -204.304    -314.962    -222.621
  H     -203.039    -314.090    -221.712
  H     -197.880    -322.501    -220.404
  H     -196.690    -321.319    -220.894
  H     -196.916    -322.772    -221.836

 3  4  5  6  7  8  9  10  11  12  22  25  29  30  31  32 0
 6-311+G(2d,p)
 ****
 33  36  37 0
 6-311+G(2d,p)
 ****
 1  2  13  14  15  16  17  18  19  20  21  23  24  26 0
 3-21G
 ****
 27  28  34  35  38  39  40  41  42  43  44  45  46  47  48 0
 3-21G
 ****


