%nproc=1
%NoSave
%Mem=1900MB
#P OB98/GEN NMR

erre ene a

0 1
  C       -0.579     -15.190      15.227
  O       -1.522     -14.519      14.417
  H       -0.613     -14.764      16.234
  H        0.428     -15.056      14.823
  H       -0.817     -16.256      15.286
  P       -1.660     -15.026      12.902
  C       -0.419     -12.891      12.088
  O       -1.574     -13.715      11.980
  C       -0.597     -11.641      11.231
  O        0.485     -10.720      11.496
  C       -0.557     -11.900       9.730
  O       -1.789     -12.405       9.246
  C       -0.220     -10.513       9.199
  O       -1.390      -9.694       9.084
  C        0.704      -9.955      10.290
  N        4.459      -7.441       7.935
  C        3.185      -7.098       8.223
  N        2.249      -7.822       8.873
  C        2.750      -9.012       9.247
  C        4.024      -9.501       9.019
  C        4.907      -8.655       8.329
  N        6.193      -9.017       8.005
  N        4.146     -10.784       9.515
  C        2.970     -11.060      10.041
  N        2.099     -10.017       9.907
  O       -3.201     -15.454      12.808
  O       -0.745     -16.139      12.516
  H       -1.139      -8.922       8.541
  H       -3.285     -16.411      12.975
  H        2.874      -6.115       7.882
  H        2.702     -11.995      10.518
  H        0.479      -8.908      10.526
  H        0.237     -10.566       8.211
  H        0.266     -12.582       9.484
  H       -1.537     -11.152      11.517
  H        0.456     -13.447      11.736
  H       -0.273     -12.622      13.139
  H        6.764      -8.368       7.488
  H        6.501      -9.960       8.200
  P       -1.791     -13.813       8.484
  C       -0.576     -13.044       6.319
  O       -1.777     -13.514       6.909
  O       -3.265     -14.373       8.752
  O       -0.739     -14.769       8.939
  H       -3.254     -15.033       9.471
  H       -0.729     -12.893       5.271
  H        0.200     -13.766       6.466
  H       -0.293     -12.118       6.775

 6  7  8  9  10  11  12  13  14  15  25  28  32  33  34  35 0
 6-311+G(2d,p)
 ****
 36  37  40 0
 6-311+G(2d,p)
 ****
 1  2  3  4  5  16  17  18  19  20  21  22  23  24 0
 3-21G
 ****
 26  27  29  30  31  38  39 41  42  43  44  45  46  47  48 0
 3-21G
 ****


