%nproc=1
%NoSave
%Mem=1900MB
#P OB98/GEN NMR

erre ene a

0 1
  C      179.472     -51.594     190.672
  O      179.787     -52.234     191.900
  H      178.983     -52.319     190.022
  H      180.390     -51.246     190.189
  H      178.799     -50.754     190.846
  P      180.509     -51.323     193.007
  C      182.822     -52.127     192.122
  O      181.988     -51.031     192.452
  C      184.299     -51.790     192.419
  O      184.491     -51.806     193.875
  C      185.305     -52.798     191.827
  O      186.524     -52.090     191.563
  C      185.499     -53.759     192.994
  O      186.628     -54.579     192.780
  C      185.548     -52.753     194.136
  N      187.913     -54.427     198.365
  C      188.380     -53.814     197.249
  N      187.688     -53.380     196.171
  C      186.373     -53.628     196.326
  C      185.746     -54.237     197.404
  C      186.582     -54.661     198.465
  N      186.103     -55.286     199.593
  N      184.377     -54.323     197.189
  C      184.184     -53.774     196.008
  N      185.358     -53.344     195.447
  O      180.752     -52.339     194.223
  O      179.746     -50.115     193.445
  H      186.934     -54.968     193.628
  H      180.020     -52.264     194.870
  H      189.467     -53.646     197.220
  H      183.231     -53.656     195.517
  H      186.493     -52.198     194.160
  H      184.641     -54.424     193.093
  H      184.952     -53.268     190.907
  H      184.503     -50.767     192.085
  H      182.708     -52.348     191.050
  H      182.532     -53.017     192.708
  H      186.771     -55.570     200.291
  H      185.114     -55.480     199.666
  P      186.807     -51.510     190.093
  C      188.387     -53.386     189.188
  O      187.123     -52.737     189.107
  O      188.248     -50.831     190.262
  O      185.807     -50.510     189.584
  H      188.339     -50.105     189.627
  H      188.430     -54.175     188.466
  H      188.517     -53.793     190.169
  H      189.165     -52.678     188.990

 6  7  8  9  10  11  12  13  14  15  25  28  32  33  34  35 0
 6-311+G(2d,p)
 ****
 36  37  40 0
 6-311+G(2d,p)
 ****
 1  2  3  4  5  16  17  18  19  20  21  22  23  24 0
 3-21G
 ****
 26  27  29  30  31  38  39 41  42  43  44  45  46  47  48 0
 3-21G
 ****


