%nproc=1
%NoSave
%Mem=1900MB
#P OB98/GEN NMR

erre ene a

0 1
  C       -7.480      47.605     -37.887
  O       -6.552      46.607     -38.277
  P       -6.222      46.469     -39.843
  C       -4.984      48.089     -41.450
  O       -5.919      47.946     -40.390
  C       -5.498      49.074     -42.502
  O       -6.526      48.419     -43.296
  C       -6.112      50.359     -41.926
  O       -5.797      51.413     -42.842
  C       -7.596      50.038     -41.946
  O       -8.434      51.175     -41.830
  C       -7.692      49.273     -43.262
  N      -12.726      49.469     -44.121
  C      -11.771      50.425     -44.147
  N      -10.447      50.296     -43.916
  C      -10.137      49.018     -43.643
  C      -11.002      47.940     -43.562
  C      -12.358      48.203     -43.818
  N      -13.332      47.226     -43.782
  N      -10.322      46.787     -43.231
  C       -9.065      47.162     -43.112
  N       -8.902      48.494     -43.372
  O       -7.646      46.125     -40.482
  O       -5.191      45.437     -40.181
  H       -9.371      50.897     -41.806
  H       -7.562      45.471     -41.201
  H      -12.115      51.427     -44.386
  H       -8.245      46.516     -42.830
  H       -7.641      49.942     -44.130
  H       -7.829      49.381     -41.099
  H       -5.726      50.619     -40.935
  H       -4.671      49.320     -43.178
  H       -4.832      47.119     -41.934
  H      -14.289      47.547     -43.781
  H      -13.082      46.341     -43.357
  H       -4.021      48.416     -41.043
  P       -5.788      52.927     -42.309
  C       -4.212      54.143     -40.686
  O       -4.755      52.898     -41.080
  O       -7.194      52.989     -41.546
  O       -5.594      53.981     -43.344
  H       -7.300      52.244     -40.928
  H       -3.609      53.991     -39.787
  H       -5.012      54.853     -40.460
  H       -3.571      54.538     -41.479
  H       -7.602      47.583     -36.824
  H       -8.422      47.419     -38.358
  H       -7.116      48.566     -38.184

 3  4  5  6  7  8  9  10  11  12  22  25  29  30  31  32 0
 6-311+G(2d,p)
 ****
 33  36  37 0
 6-311+G(2d,p)
 ****
 1  2  13  14  15  16  17  18  19  20  21  23  24  26 0
 3-21G
 ****
 27  28  34  35  38  39  40  41  42  43  44  45  46  47  48 0
 3-21G
 ****


