%nproc=1
%NoSave
%Mem=1900MB
#P OB98/GEN NMR

erre ene a

0 1
  C       26.116     -13.562     -18.824
  O       24.713     -13.658     -18.694
  H       26.524     -13.144     -17.901
  H       26.384     -12.902     -19.654
  H       26.551     -14.553     -18.979
  P       23.861     -14.137     -19.968
  C       24.285     -16.693     -19.921
  O       24.639     -15.444     -20.493
  C       25.106     -17.814     -20.553
  O       24.956     -19.045     -19.815
  C       24.711     -18.169     -21.983
  O       25.133     -17.212     -22.939
  C       25.431     -19.499     -22.132
  O       26.837     -19.265     -22.331
  C       25.167     -20.141     -20.748
  N       24.016     -21.042     -20.748
  C       24.246     -22.353     -20.314
  O       25.369     -22.706     -19.958
  N       23.204     -23.249     -20.331
  C       22.040     -22.873     -20.760
  N       21.054     -23.812     -20.800
  C       21.749     -21.498     -21.209
  C       22.771     -20.645     -21.183
  O       23.583     -13.098     -21.006
  O       22.538     -14.782     -19.341
  H       26.925     -18.731     -23.140
  H       21.970     -15.084     -20.092
  H       20.763     -21.240     -21.565
  H       22.640     -19.621     -21.513
  H       26.048     -20.693     -20.402
  H       25.077     -20.089     -22.982
  H       23.633     -18.346     -22.057
  H       26.163     -17.527     -20.487
  H       21.301     -24.753     -20.526
  H       23.215     -16.851     -20.082
  H       20.225     -23.680     -21.369
  H       24.485     -16.684     -18.845
  P       24.897     -17.548     -24.493
  C       22.367     -17.048     -24.119
  O       23.346     -17.927     -24.650
  O       25.648     -18.946     -24.672
  O       25.373     -16.510     -25.459
  H       26.563     -18.816     -24.989
  H       21.391     -17.445     -24.307
  H       22.458     -16.089     -24.585
  H       22.513     -16.947     -23.064

 6  7  8  9  10  11  12  13  14  15  16  26  30  31  32  33  35 0
 6-311+G(2d,p)
 ****
 37  38 0
 6-311+G(2d,p)
 ****
 1  2  3  4  5  17  18  19  20  21  22  23  24  25 0
 3-21G
 ****
 27  28  29  34  36  39  40  41  42  43  44  45  46 0
 3-21G
 ****


