%nproc=1
%NoSave
%Mem=1900MB
#P OB98/GEN NMR

erre ene a

0 1
  C     -240.192     486.342      71.539
  O     -239.902     486.380      70.157
  H     -240.907     487.136      71.769
  H     -239.283     486.502      72.126
  H     -240.642     485.377      71.800
  P     -238.840     485.306      69.617
  C     -236.741     486.399      70.645
  O     -237.666     485.324      70.717
  C     -236.060     486.613      71.996
  O     -235.087     485.561      72.193
  C     -235.325     487.954      72.104
  O     -235.489     488.476      73.420
  C     -233.869     487.581      71.877
  O     -232.971     488.511      72.479
  C     -233.816     486.175      72.475
  N     -228.783     485.343      72.609
  C     -229.596     486.086      73.389
  N     -230.939     486.240      73.290
  C     -231.428     485.488      72.291
  C     -230.722     484.689      71.405
  C     -229.331     484.636      71.593
  N     -228.490     483.901      70.787
  N     -231.577     484.111      70.490
  C     -232.779     484.545      70.821
  N     -232.738     485.395      71.891
  O     -238.393     485.494      68.206
  O     -239.583     483.928      69.925
  H     -232.886     488.285      73.429
  H     -239.992     483.932      70.812
  H     -229.110     486.637      74.191
  H     -233.700     484.289      70.308
  H     -233.662     486.179      73.558
  H     -233.659     487.554      70.803
  H     -235.679     488.683      71.368
  H     -236.811     486.508      72.791
  H     -237.254     487.318      70.341
  H     -227.503     483.910      70.998
  H     -228.877     483.353      70.033
  H     -235.996     486.152      69.878
  P     -236.678     489.517      73.687
  C     -235.249     491.656      73.456
  O     -236.335     490.890      72.939
  O     -237.118     489.654      75.112
  O     -237.866     488.923      72.781
  H     -238.711     489.045      73.250
  H     -235.127     492.543      72.869
  H     -234.351     491.075      73.415
  H     -235.454     491.925      74.471

 6  7  8  9  10  11  12  13  14  15  25  28  32  33  34  35 0
 6-311+G(2d,p)
 ****
 36  39  40 0
 6-311+G(2d,p)
 ****
 1  2  3  4  5  16  17  18  19  20  21  22  23  24 0
 3-21G
 ****
 26  27  29  30  31  37  38  41  42  43  44  45  46  47 0
 3-21G
 ****
 48 0
 3-21G
 ****


