%nproc=1
%NoSave
%Mem=1900MB
#P OB98/GEN NMR

erre ene a

0 1
  C     -586.517      36.762    -124.675
  O     -585.348      37.143    -123.977
  H     -587.077      36.020    -124.094
  H     -587.153      37.642    -124.819
  H     -586.262      36.354    -125.659
  P     -584.300      35.967    -123.664
  C     -584.978      35.701    -121.173
  O     -584.920      35.096    -122.462
  C     -586.140      35.106    -120.370
  O     -585.922      33.678    -120.239
  C     -586.285      35.698    -118.945
  O     -587.635      36.106    -118.709
  C     -585.963      34.526    -118.026
  O     -586.720      34.546    -116.824
  C     -586.281      33.318    -118.894
  N     -586.740      28.903    -116.399
  C     -587.662      29.687    -116.990
  N     -587.472      30.803    -117.732
  C     -586.144      31.063    -117.852
  C     -585.090      30.338    -117.321
  C     -585.429      29.216    -116.548
  N     -584.494      28.439    -115.889
  N     -583.884      30.922    -117.648
  C     -584.201      32.007    -118.335
  N     -585.566      32.137    -118.474
  O     -583.079      36.751    -122.962
  O     -583.845      35.201    -124.859
  H     -586.457      33.750    -116.313
  H     -582.284      36.636    -123.515
  H     -588.702      29.389    -116.858
  H     -583.500      32.739    -118.714
  H     -587.352      33.082    -118.896
  H     -584.893      34.566    -117.771
  H     -585.611      36.544    -118.774
  H     -587.072      35.249    -120.937
  H     -585.133      36.786    -121.278
  H     -584.831      27.735    -115.256
  H     -583.532      28.748    -115.897
  H     -584.023      35.525    -120.663
  P     -587.970      37.648    -119.012
  C     -586.982      38.563    -116.773
  O     -586.909      38.564    -118.211
  O     -589.350      37.890    -118.229
  O     -588.112      37.969    -120.467
  H     -590.035      38.216    -118.848
  H     -586.226      39.208    -116.377
  H     -586.829      37.569    -116.409
  H     -587.946      38.911    -116.465

 6  7  8  9  10  11  12  13  14  15  25  28  32  33  34  35 0
 6-311+G(2d,p)
 ****
 36  39  40 0
 6-311+G(2d,p)
 ****
 1  2  3  4  5  16  17  18  19  20  21  22  23  24 0
 3-21G
 ****
 26  27  29  30  31  37  38  41  42  43  44  45  46  47  48 0
 3-21G
 ****


