%nproc=1
%NoSave
%Mem=1900MB
#P OB98/GEN NMR

erre ene a

0 1
  C       53.653     -41.094     -62.275
  O       55.056     -41.138     -62.086
  P       55.978     -41.947     -63.115
  C       56.370     -43.884     -61.421
  O       55.906     -43.492     -62.694
  C       57.484     -44.933     -61.536
  O       56.881     -46.174     -61.981
  C       58.569     -44.607     -62.557
  O       59.716     -45.411     -62.273
  C       57.930     -45.071     -63.847
  O       58.890     -45.295     -64.875
  C       57.135     -46.323     -63.397
  N       55.865     -46.452     -64.134
  C       55.906     -47.138     -65.345
  O       56.922     -47.690     -65.767
  N       54.763     -47.097     -66.095
  C       53.632     -46.408     -65.771
  O       52.749     -46.126     -66.574
  C       53.566     -45.910     -64.389
  C       54.679     -45.931     -63.650
  O       57.456     -41.504     -62.690
  O       55.707     -41.669     -64.554
  H       58.412     -45.721     -65.624
  H       57.766     -40.777     -63.260
  H       54.840     -47.471     -67.034
  H       52.632     -45.490     -64.041
  H       54.674     -45.523     -62.643
  H       57.712     -47.242     -63.556
  H       57.238     -44.297     -64.204
  H       58.846     -43.550     -62.595
  H       57.923     -45.107     -60.546
  H       55.532     -44.273     -60.836
  H       56.754     -43.016     -60.872
  P       61.133     -44.673     -62.133
  C       61.932     -45.250     -64.505
  O       61.554     -44.220     -63.613
  O       62.179     -45.407     -61.362
  O       60.747     -43.281     -61.434
  H       61.541     -42.882     -61.033
  H       61.692     -44.938     -65.525
  H       61.405     -46.183     -64.286
  H       63.009     -45.415     -64.428
  H       53.206     -40.512     -61.496
  H       53.258     -42.088     -62.249
  H       53.435     -40.648     -63.223

 3  4  5  6  7  8  9  10  11  12  13  23  28  29  30  31  32 0
 6-311+G(2d,p)
 ****
 33  34 0
 6-311+G(2d,p)
 ****
 1  2  14  15  16  17  18  19  20  21  22  24  25  26  27 0
 3-21G
 ****
 35  36  37  38  39  40  41  42  43  44  45 0
 3-21G
 ****


