%nproc=1
%NoSave
%Mem=1900MB
#P OB98/GEN NMR

erre ene a

0 1
  C     -152.960     281.009     164.182
  O     -153.064     279.762     163.519
  P     -153.914     278.596     164.219
  C     -151.856     277.274     165.183
  O     -152.959     277.306     164.291
  C     -150.773     276.328     164.652
  O     -149.598     276.426     165.510
  C     -151.188     274.844     164.615
  O     -150.559     274.257     163.465
  C     -150.575     274.292     165.895
  O     -150.397     272.887     165.854
  C     -149.272     275.098     165.960
  N     -148.681     275.139     167.298
  C     -147.439     274.540     167.483
  O     -146.816     273.955     166.590
  N     -146.927     274.607     168.755
  C     -147.553     275.134     169.849
  O     -147.052     275.155     170.971
  C     -148.881     275.713     169.604
  C     -149.370     275.701     168.358
  O     -154.956     278.238     163.059
  O     -154.530     278.992     165.519
  H     -154.571     278.307     162.163
  H     -150.096     272.593     166.735
  H     -146.012     274.212     168.902
  H     -149.422     276.134     170.451
  H     -150.352     276.118     168.157
  H     -148.540     274.684     165.246
  H     -151.235     274.526     166.742
  H     -152.270     274.711     164.556
  H     -150.476     276.667     163.650
  H     -152.190     276.919     166.162
  H     -151.461     278.288     165.306
  P     -151.504     273.610     162.331
  C     -151.899     271.394     163.675
  O     -151.428     272.023     162.499
  O     -150.603     273.879     161.028
  O     -152.867     274.216     162.230
  H     -149.676     273.612     161.144
  H     -152.073     270.332     163.474
  H     -152.829     271.842     164.035
  H     -151.133     271.476     164.458
  H     -152.366     281.677     163.594
  H     -152.498     280.868     165.137
  H     -153.937     281.424     164.316

 3  4  5  6  7  8  9  10  11  12  13  24  28  29  30  31  32 0
 6-311+G(2d,p)
 ****
 33  34 0
 6-311+G(2d,p)
 ****
 1  2  14  15  16  17  18  19  20  21  22  23  25  26  27 0
 3-21G
 ****
 35  36  37  38  39  40  41  42  43  44  45 0
 3-21G
 ****


