%nproc=1
%NoSave
%Mem=1900MB
#P OB98/GEN NMR

erre ene a

0 1
  C      195.108       2.860      46.671
  O      194.922       3.210      48.029
  H      195.375       1.801      46.617
  H      195.912       3.449      46.223
  H      194.180       3.015      46.115
  P      194.796       4.768      48.398
  C      197.313       5.009      48.909
  O      196.235       5.402      48.062
  C      198.633       5.623      48.445
  O      198.944       5.210      47.097
  C      198.630       7.143      48.395
  O      198.530       7.773      49.651
  C      199.834       7.429      47.512
  O      201.063       7.397      48.238
  C      199.775       6.242      46.520
  N      199.294       6.645      45.202
  C      200.065       7.590      44.536
  O      201.084       8.095      45.009
  N      199.607       7.971      43.304
  C      198.457       7.543      42.710
  O      198.090       7.940      41.609
  C      197.661       6.574      43.479
  C      198.111       6.172      44.673
  O      194.308       5.069      49.784
  O      193.861       5.361      47.243
  H      201.082       6.553      48.726
  H      193.509       6.252      47.490
  H      200.160       8.645      42.796
  H      196.736       6.220      43.045
  H      197.542       5.454      45.259
  H      200.773       5.801      46.395
  H      199.767       8.407      47.030
  H      197.747       7.465      47.828
  H      199.429       5.248      49.099
  H      197.388       3.917      48.867
  H      197.097       5.310      49.939
  P      197.988       9.260      49.855
  C      200.456      10.020      50.275
  O      199.207      10.281      49.643
  O      197.075       9.486      51.017
  O      197.127       9.482      48.507
  H      196.368      10.054      48.742
  H      201.150      10.796      50.028
  H      200.837       9.079      49.936
  H      200.319       9.988      51.336

 6  7  8  9  10  11  12  13  14  15  16  26  31  32  33  34  35 0
 6-311+G(2d,p)
 ****
 36  37 0
 6-311+G(2d,p)
 ****
 1  2  3  4  5  17  18  19  20  21  22  23  24  25 0
 3-21G
 ****
 27  28  29  30  38  39  40  41  42  43  44  45 0
 3-21G
 ****


