%nproc=1
%NoSave
%Mem=1900MB
#P OB98/GEN NMR

erre ene a

0 1
  C     -664.526     743.416    -892.300
  O     -665.025     742.973    -893.540
  P     -665.028     741.419    -893.920
  C     -667.395     740.889    -893.060
  O     -666.575     740.997    -894.200
  C     -668.855     740.703    -893.500
  O     -669.392     741.910    -894.090
  C     -669.042     739.635    -894.570
  O     -668.750     738.300    -894.240
  C     -670.433     739.954    -895.080
  O     -671.432     739.372    -894.210
  C     -670.475     741.505    -894.960
  N     -670.371     742.123    -896.290
  C     -671.528     742.105    -897.040
  O     -672.583     741.597    -896.700
  N     -671.423     742.682    -898.320
  C     -670.267     743.177    -898.850
  O     -670.242     743.640    -900.000
  C     -669.088     743.173    -897.990
  C     -669.169     742.668    -896.780
  O     -664.329     740.549    -892.920
  O     -664.384     741.389    -895.390
  H     -671.458     739.881    -893.400
  H     -664.885     741.907    -896.050
  H     -672.220     742.641    -898.890
  H     -668.182     743.603    -898.390
  H     -668.314     742.642    -896.100
  H     -671.402     741.837    -894.490
  H     -670.633     739.544    -896.070
  H     -668.356     739.879    -895.400
  H     -669.465     740.459    -892.600
  H     -667.315     741.778    -892.450
  H     -667.056     740.045    -892.440
  P     -667.960     737.294    -895.210
  C     -665.781     736.908    -893.860
  O     -667.030     736.373    -894.320
  O     -667.403     737.854    -896.470
  O     -669.156     736.236    -895.600
  H     -669.007     735.915    -896.520
  H     -665.225     736.127    -893.330
  H     -665.937     737.763    -893.220
  H     -665.162     737.206    -894.720
  H     -664.612     744.481    -892.241
  H     -663.497     743.136    -892.209
  H     -665.089     742.968    -891.508

 3  4  5  6  7  8  9  10  11  12  13  23  28  29  30  31  32 0
 6-311+G(2d,p)
 ****
 33  34 0
 6-311+G(2d,p)
 ****
 1  2  14  15  16  17  18  19  20  21  22  24  25  26  27 0
 3-21G
 ****
 35  36  37  38  39  40  41  42  43  44  45 0
 3-21G
 ****


