%nproc=1
%NoSave
%Mem=1900MB
#P OB98/GEN NMR

erre ene a

0 1
  C     -766.653    -898.490    1208.951
  O     -766.099    -897.410    1209.726
  P     -765.438    -897.730    1211.132
  C     -762.880    -897.160    1210.967
  O     -763.906    -898.150    1210.893
  C     -762.362    -896.830    1209.564
  O     -763.408    -896.300    1208.736
  C     -761.269    -895.750    1209.582
  O     -759.992    -896.320    1209.847
  C     -761.311    -895.260    1208.150
  O     -760.600    -896.200    1207.293
  C     -762.813    -895.290    1207.842
  N     -763.398    -890.610    1205.966
  C     -762.661    -891.700    1205.495
  N     -761.987    -891.500    1204.335
  N     -762.614    -892.870    1206.091
  C     -763.348    -892.920    1207.215
  C     -764.117    -891.930    1207.796
  C     -764.143    -890.650    1207.140
  O     -764.770    -889.660    1207.523
  N     -764.706    -892.380    1208.953
  C     -764.310    -893.620    1209.047
  N     -763.479    -894.020    1208.040
  O     -766.120    -899.110    1211.543
  O     -765.644    -896.660    1212.167
  H     -760.997    -897.090    1207.472
  H     -766.166    -899.190    1212.532
  H     -763.401    -889.750    1205.479
  H     -764.622    -894.310    1209.860
  H     -763.044    -895.610    1206.819
  H     -760.831    -894.290    1208.015
  H     -762.030    -890.640    1203.796
  H     -761.522    -894.940    1210.283
  H     -761.477    -892.280    1203.955
  H     -761.970    -897.740    1209.100
  H     -762.067    -897.540    1211.599
  H     -763.293    -896.280    1211.497
  P     -759.578    -896.560    1211.389
  C     -759.570    -899.170    1211.426
  O     -760.227    -897.950    1211.825
  O     -760.484    -895.490    1212.167
  O     -758.145    -896.380    1211.682
  H     -760.018    -895.160    1212.961
  H     -760.065    -900.000    1211.914
  H     -758.525    -899.130    1211.734
  H     -759.643    -899.300    1210.327
  H     -767.055    -898.104    1208.038
  H     -767.431    -898.968    1209.510
  H     -765.885    -899.201    1208.730

 3  4  5  6  7  8  9  10  11  12  23  26  30  31 0
 6-311+G(2d,p)
 ****
 33  35  36  37  38 0
 6-311+G(2d,p)
 ****
 1  2  13  14  15  16  17  18  19  20  21  22  24  25 0
 3-21G
 ****
 27  28  29  32  34  39  40  41  42  43  44  45  46  47  48  49 0
 3-21G
 ****


