%nproc=1
%NoSave
%Mem=1900MB
#P OB98/GEN NMR

erre ene a

0 1
  C     -490.196    -187.158     952.137
  O     -489.738    -187.284     953.467
  H     -489.482    -187.639     951.466
  H     -490.288    -186.101     951.855
  H     -491.167    -187.647     952.023
  P     -490.542    -186.526     954.626
  C     -488.279    -186.365     955.895
  O     -489.441    -185.678     955.429
  C     -487.215    -185.369     956.340
  O     -486.687    -184.650     955.197
  C     -487.748    -184.307     957.293
  O     -487.935    -184.837     958.589
  C     -486.685    -183.236     957.160
  O     -485.531    -183.556     957.945
  C     -486.347    -183.308     955.640
  N     -487.045    -182.312     954.857
  C     -486.250    -181.308     954.288
  O     -485.038    -181.308     954.458
  N     -486.872    -180.315     953.558
  C     -488.157    -180.323     953.398
  N     -488.700    -179.308     952.672
  C     -489.041    -181.360     953.969
  C     -488.428    -182.302     954.691
  O     -491.428    -187.368     955.499
  O     -491.362    -185.395     953.837
  H     -484.840    -182.902     957.692
  H     -492.243    -185.740     953.557
  H     -490.101    -181.334     953.811
  H     -488.993    -183.113     955.131
  H     -485.268    -183.189     955.480
  H     -487.049    -182.248     957.477
  H     -488.695    -183.896     956.898
  H     -486.385    -185.930     956.800
  H     -488.067    -178.598     952.302
  H     -487.910    -186.971     955.051
  H     -489.680    -179.260     952.406
  H     -488.532    -187.046     956.720
  P     -488.287    -183.876     959.833
  C     -488.331    -185.775     961.596
  O     -487.645    -184.614     961.119
  O     -489.721    -183.486     959.954
  O     -487.296    -182.632     959.611
  H     -487.606    -182.047     958.869
  H     -487.813    -186.172     962.444
  H     -488.365    -186.513     960.822
  H     -489.328    -185.509     961.879

 6  7  8  9  10  11  12  13  14  15  16  26  30  31  32  33  35 0
 6-311+G(2d,p)
 ****
 37  38 0
 6-311+G(2d,p)
 ****
 1  2  3  4  5  17  18  19  20  21  22  23  24  25 0
 3-21G
 ****
 27  28  29  34  36  39  40  41  42  43  44  45  46 0
 3-21G
 ****


