%nproc=1
%NoSave
%Mem=1900MB
#P OB98/GEN NMR

erre ene a

0 1
  C     -558.006    1036.827    -424.842
  O     -557.930    1036.334    -426.162
  H     -559.058    1036.924    -424.565
  H     -557.535    1037.812    -424.788
  H     -557.519    1036.149    -424.134
  P     -556.557    1035.687    -426.666
  C     -556.629    1033.109    -426.706
  O     -556.385    1034.272    -425.924
  C     -555.727    1031.943    -426.288
  O     -554.336    1032.316    -426.426
  C     -555.918    1031.556    -424.824
  O     -556.995    1030.673    -424.565
  C     -554.581    1030.898    -424.498
  O     -554.588    1029.509    -424.870
  C     -553.596    1031.684    -425.368
  N     -550.134    1032.625    -421.730
  C     -550.671    1031.415    -422.127
  N     -550.277    1030.332    -421.428
  N     -551.528    1031.295    -423.108
  C     -551.901    1032.476    -423.651
  C     -551.450    1033.738    -423.334
  C     -550.458    1033.859    -422.282
  O     -549.958    1034.905    -421.889
  N     -552.054    1034.698    -424.105
  C     -552.921    1034.028    -424.837
  N     -552.846    1032.671    -424.615
  O     -555.433    1036.583    -425.952
  O     -556.365    1035.661    -428.152
  H     -555.245    1029.049    -424.318
  H     -554.611    1036.565    -426.478
  H     -549.456    1032.656    -420.987
  H     -553.607    1034.467    -425.556
  H     -552.864    1031.019    -425.843
  H     -554.359    1030.934    -423.425
  H     -549.713    1030.389    -420.593
  H     -556.018    1032.450    -424.201
  H     -550.841    1029.480    -421.507
  H     -555.902    1031.092    -426.958
  H     -556.433    1033.378    -427.744
  H     -557.681    1032.820    -426.638
  P     -557.921    1030.892    -423.276
  C     -560.160    1031.532    -424.436
  O     -559.043    1031.961    -423.684
  O     -556.959    1031.706    -422.286
  O     -558.432    1029.641    -422.652
  H     -556.537    1031.097    -421.652
  H     -560.806    1032.364    -424.621
  H     -560.692    1030.782    -423.889
  H     -559.827    1031.125    -425.368

 6  7  8  9  10  11  12  13  14  15  26  29  33  34 0
 6-311+G(2d,p)
 ****
 36  38  39  40  41 0
 6-311+G(2d,p)
 ****
 1  2  3  4  5  16  17  18  19  20  21  22  23  24  25 0
 3-21G
 ****
 27  28  30  31  32  35  37  42  43  44  45  46  47 0
 3-21G
 ****
 48  49 0
 3-21G
 ****


