%nproc=1
%NoSave
%Mem=1900MB
#P OB98/GEN NMR

erre ene a

0 1
  C     -279.451     490.740     566.567
  O     -279.426     491.944     567.307
  P     -279.301     493.352     566.557
  C     -279.706     495.775     567.314
  O     -280.176     494.432     567.354
  C     -280.486     496.645     568.290
  O     -281.846     496.837     567.839
  C     -280.616     496.051     569.681
  O     -279.396     496.113     570.405
  C     -281.749     496.892     570.255
  O     -281.260     498.161     570.717
  C     -282.648     497.085     569.018
  N     -283.824     496.233     569.045
  C     -284.831     496.612     569.941
  O     -284.673     497.563     570.699
  N     -286.000     495.884     569.948
  C     -286.104     494.811     569.230
  N     -287.305     494.167     569.235
  C     -285.000     494.289     568.394
  C     -283.909     495.052     568.335
  O     -279.545     493.304     565.083
  O     -277.798     493.824     566.861
  H     -277.370     494.079     566.024
  H     -280.485     497.975     571.282
  H     -285.113     493.352     567.872
  H     -283.056     494.764     567.737
  H     -282.975     498.127     568.941
  H     -282.242     496.407     571.105
  H     -280.942     495.001     569.608
  H     -279.994     497.626     568.338
  H     -288.049     494.566     569.800
  H     -279.825     496.161     566.295
  H     -287.593     493.540     568.482
  H     -278.633     495.785     567.560
  P     -279.101     494.911     571.429
  C     -276.993     493.987     572.620
  O     -277.587     495.070     571.933
  O     -279.058     493.618     570.482
  O     -280.117     494.751     572.516
  H     -279.444     492.855     570.953
  H     -275.903     494.103     572.580
  H     -277.262     493.032     572.163
  H     -277.313     493.997     573.666
  H     -279.538     489.911     567.238
  H     -278.546     490.649     566.003
  H     -280.288     490.749     565.900

 3  4  5  6  7  8  9  10  11  12  13  24  27  28  29  30  32 0
 6-311+G(2d,p)
 ****
 34  35 0
 6-311+G(2d,p)
 ****
 1  2  14  15  16  17  18  19  20  21  22  23  25  26 0
 3-21G
 ****
 31  33  36  37  38  39  40  41  42  43  44  45  46 0
 3-21G
 ****


