%nproc=1
%NoSave
%Mem=1900MB
#P OB98/GEN NMR

erre ene a

0 1
  C     -213.413     563.880     -84.870
  O     -214.430     564.841     -85.053
  H     -212.735     564.229     -84.086
  H     -212.844     563.759     -85.795
  H     -213.841     562.919     -84.567
  P     -215.631     564.467     -86.050
  C     -217.409     562.577     -86.154
  O     -216.419     563.240     -85.379
  C     -218.191     561.589     -85.288
  O     -217.252     560.700     -84.629
  C     -219.042     562.259     -84.208
  O     -220.271     561.537     -84.080
  C     -218.220     562.082     -82.941
  O     -219.018     562.107     -81.759
  C     -217.515     560.747     -83.214
  N     -216.289     560.619     -82.428
  C     -216.080     559.394     -81.783
  O     -216.914     558.492     -81.886
  N     -214.970     559.240     -80.996
  C     -214.177     560.251     -80.800
  N     -213.108     560.041     -79.981
  C     -214.395     561.579     -81.401
  C     -215.454     561.689     -82.206
  O     -214.885     563.790     -87.294
  O     -216.498     565.610     -86.461
  H     -219.512     562.957     -81.735
  H     -215.361     563.959     -88.127
  H     -213.720     562.394     -81.185
  H     -215.698     562.627     -82.686
  H     -218.178     559.904     -82.971
  H     -217.484     562.890     -82.868
  H     -219.257     563.312     -84.417
  H     -218.810     560.969     -85.944
  H     -213.004     559.121     -79.575
  H     -216.917     562.030     -86.966
  H     -212.455     560.766     -79.721
  H     -218.087     563.322     -86.591
  P     -221.587     562.252     -84.655
  C     -222.421     562.719     -87.071
  O     -221.766     561.819     -86.186
  O     -221.164     563.793     -84.738
  O     -222.797     562.056     -83.797
  H     -221.627     564.303     -84.046
  H     -222.462     562.290     -88.050
  H     -221.879     563.641     -87.108
  H     -223.415     562.904     -86.720

 6  7  8  9  10  11  12  13  14  15  16  26  30  31  32  33  35 0
 6-311+G(2d,p)
 ****
 37  38 0
 6-311+G(2d,p)
 ****
 1  2  3  4  5  17  18  19  20  21  22  23  24  25 0
 3-21G
 ****
 27  28  29  34  36  39  40  41  42  43  44  45  46 0
 3-21G
 ****


