%nproc=1
%NoSave
%Mem=1900MB
#P OB98/GEN NMR

erre ene a

0 1
  C      139.128    -422.821    -156.066
  O      137.829    -422.267    -156.167
  P      137.264    -421.484    -154.879
  C      137.066    -422.047    -152.347
  O      137.416    -422.503    -153.650
  C      136.394    -423.162    -151.552
  O      135.124    -423.490    -152.143
  C      137.186    -424.457    -151.529
  O      138.252    -424.375    -150.601
  C      136.105    -425.461    -151.126
  O      135.964    -425.528    -149.699
  C      134.834    -424.862    -151.777
  N      134.369    -425.632    -152.918
  C      133.848    -426.898    -152.626
  O      133.820    -427.303    -151.464
  N      133.407    -427.681    -153.660
  C      133.492    -427.246    -154.885
  N      133.036    -428.070    -155.868
  C      134.055    -425.928    -155.234
  C      134.476    -425.184    -154.213
  O      135.688    -421.452    -155.147
  O      137.836    -420.124    -154.673
  H      135.689    -424.632    -149.417
  H      135.274    -420.688    -154.697
  H      134.103    -425.612    -156.268
  H      134.908    -424.202    -154.386
  H      134.018    -424.815    -151.041
  H      136.333    -426.475    -151.473
  H      137.563    -424.705    -152.524
  H      136.219    -422.800    -150.532
  H      132.660    -428.968    -155.598
  H      136.374    -421.209    -152.436
  H      133.038    -427.809    -156.849
  H      137.975    -421.695    -151.840
  P      139.709    -424.835    -151.097
  C      140.759    -427.085    -151.725
  O      139.591    -426.423    -151.282
  O      140.571    -424.718    -149.754
  O      140.312    -424.075    -152.234
  H      141.515    -424.877    -149.958
  H      140.597    -428.168    -151.662
  H      141.613    -426.821    -151.101
  H      140.964    -426.831    -152.770
  H      139.380    -423.310    -156.984
  H      139.152    -423.531    -155.266
  H      139.834    -422.041    -155.872

 3  4  5  6  7  8  9  10  11  12  13  21  23  27  28  29  30  32 0
 6-311+G(2d,p)
 ****
 34  35 0
 6-311+G(2d,p)
 ****
 1  2  14  15  16  17  18  19  20  22  24  25  26 0
 3-21G
 ****
 31  33  36  37  38  39  40  41  42  43  44  45  46 0
 3-21G
 ****


