%nproc=1
%NoSave
%Mem=1900MB
#P OB98/GEN NMR

erre ene a

0 1
  C       34.660    -519.322    -453.661
  O       34.229    -519.781    -454.928
  H       35.680    -519.669    -453.491
  H       34.015    -519.725    -452.879
  H       34.649    -518.227    -453.629
  P       32.774    -519.303    -455.416
  C       33.852    -517.304    -456.670
  O       32.894    -517.728    -455.712
  C       34.008    -515.786    -456.651
  O       34.143    -515.339    -455.266
  C       35.226    -515.262    -457.425
  O       34.872    -514.008    -458.018
  C       36.241    -514.991    -456.319
  O       37.247    -514.067    -456.719
  C       35.305    -514.487    -455.217
  N       38.400    -511.959    -452.158
  C       37.907    -511.633    -453.405
  N       38.297    -510.442    -453.918
  N       37.104    -512.397    -454.089
  C       36.767    -513.539    -453.440
  C       37.185    -513.980    -452.205
  C       38.104    -513.131    -451.468
  O       38.584    -513.381    -450.371
  N       36.645    -515.207    -451.912
  C       35.899    -515.499    -452.961
  N       35.934    -514.518    -453.910
  O       31.913    -519.368    -454.067
  O       32.166    -520.116    -456.509
  H       36.805    -513.217    -456.922
  H       31.457    -520.230    -453.999
  H       39.027    -511.338    -451.682
  H       35.307    -516.411    -453.080
  H       34.978    -513.458    -455.385
  H       36.731    -515.931    -456.021
  H       38.879    -509.785    -453.428
  H       35.604    -515.944    -458.196
  H       37.912    -510.170    -454.821
  H       33.078    -515.339    -457.032
  H       33.521    -517.620    -457.666
  H       34.813    -517.782    -456.451
  P       34.607    -513.973    -459.596
  C       32.075    -513.411    -459.430
  O       33.069    -514.327    -459.857
  O       35.369    -515.281    -460.118
  O       35.115    -512.735    -460.282
  H       35.662    -515.157    -461.038
  H       31.107    -513.794    -459.678
  H       32.222    -512.471    -459.919
  H       32.145    -513.277    -458.371

 6  7  8  9  10  11  12  13  14  15  26  29  33  34 0
 6-311+G(2d,p)
 ****
 36  38  39  40  41 0
 6-311+G(2d,p)
 ****
 1  2  3  4  5  16  17  18  19  20  21  22  23  24  25 0
 3-21G
 ****
 27  28  30  31  32  35  37  42  43  44  45  46  47 0
 3-21G
 ****
 48  49 0
 3-21G
 ****


