%nproc=1
%NoSave
%Mem=1900MB
#P OB98/GEN NMR

erre ene a

0 1
  C      417.232    -904.011     213.004
  O      416.139    -904.813     213.403
  H      417.366    -903.213     213.744
  H      417.028    -903.549     212.032
  H      418.143    -904.601     212.950
  P      415.729    -906.055     212.477
  C      416.774    -907.803     214.077
  O      416.836    -907.170     212.804
  C      416.043    -909.137     213.973
  O      416.747    -910.054     213.105
  C      415.887    -909.902     215.295
  O      414.928    -909.332     216.169
  C      415.478    -911.255     214.769
  O      414.094    -911.207     214.363
  C      416.419    -911.407     213.551
  N      417.641    -912.156     213.876
  C      417.462    -913.442     214.394
  O      416.346    -913.890     214.562
  N      418.580    -914.167     214.729
  C      419.770    -913.649     214.592
  N      420.821    -914.425     214.945
  C      419.985    -912.295     214.078
  C      418.885    -911.609     213.738
  O      415.529    -905.759     211.032
  O      414.429    -906.677     213.191
  H      414.043    -910.618     213.592
  H      414.126    -907.442     212.645
  H      420.995    -911.892     214.007
  H      418.972    -910.599     213.350
  H      415.903    -911.901     212.725
  H      415.562    -912.053     215.511
  H      416.875    -909.993     215.806
  H      415.060    -908.940     213.505
  H      420.634    -915.349     215.316
  H      416.272    -907.132     214.776
  H      421.774    -914.059     214.948
  H      417.794    -907.997     214.443
  P      415.166    -909.526     217.757
  C      416.636    -907.384     218.078
  O      416.574    -908.798     218.074
  O      415.521    -911.088     217.862
  O      414.035    -909.116     218.628
  H      414.728    -911.592     218.144
  H      417.634    -907.071     218.304
  H      415.966    -907.000     218.818
  H      416.355    -907.012     217.115

 6  7  8  9  10  11  12  13  14  15  16  26  30  31  32  33  35 0
 6-311+G(2d,p)
 ****
 37  38 0
 6-311+G(2d,p)
 ****
 1  2  3  4  5  17  18  19  20  21  22  23  24  25 0
 3-21G
 ****
 27  28  29  34  36  39  40  41  42  43  44  45  46 0
 3-21G
 ****


