%nproc=1
%NoSave
%Mem=1900MB
#P OB98/GEN NMR

erre ene a

0 1
  C      659.688    -948.846     476.043
  O      659.673    -947.765     475.131
  H      660.264    -948.550     476.927
  H      660.177    -949.716     475.586
  H      658.681    -949.111     476.350
  P      658.895    -947.953     473.743
  C      656.699    -946.880     474.605
  O      657.356    -948.071     474.169
  C      655.736    -946.386     473.536
  O      654.689    -947.348     473.277
  C      654.987    -945.091     473.883
  O      655.799    -943.923     473.834
  C      653.913    -945.109     472.820
  O      654.490    -944.713     471.557
  C      653.520    -946.604     472.817
  N      652.356    -946.883     473.669
  C      651.146    -947.127     473.012
  O      651.081    -947.099     471.799
  N      650.024    -947.364     473.782
  C      650.106    -947.334     475.087
  N      648.965    -947.581     475.769
  C      651.356    -947.058     475.798
  C      652.434    -946.847     475.034
  O      659.395    -949.029     472.853
  O      658.927    -946.493     473.068
  H      655.333    -945.191     471.459
  H      658.472    -946.558     472.190
  H      651.364    -947.018     476.892
  H      653.398    -946.638     475.496
  H      653.304    -946.943     471.799
  H      653.087    -944.421     473.025
  H      654.504    -945.179     474.886
  H      656.309    -946.269     472.598
  H      648.112    -947.749     475.235
  H      657.460    -946.136     474.831
  H      648.920    -947.497     476.785
  H      656.122    -947.090     475.521
  P      655.544    -942.784     474.952
  C      657.517    -943.754     476.361
  O      656.154    -943.386     476.327
  O      653.951    -942.884     475.179
  O      655.998    -941.422     474.594
  H      653.503    -942.182     474.675
  H      657.761    -944.130     477.333
  H      658.123    -942.898     476.148
  H      657.700    -944.512     475.629

 6  7  8  9  10  11  12  13  14  15  16  26  30  31  32  33  35 0
 6-311+G(2d,p)
 ****
 37  38 0
 6-311+G(2d,p)
 ****
 1  2  3  4  5  17  18  19  20  21  22  23  24  25 0
 3-21G
 ****
 27  28  29  34  36  39  40  41  42  43  44  45  46 0
 3-21G
 ****


