%nproc=1
%NoSave
%Mem=1900MB
#P OB98/GEN NMR

erre ene a

0 1
  C       87.357     -27.985      50.473
  O       86.773     -27.585      51.694
  H       88.427     -28.141      50.630
  H       87.222     -27.206      49.720
  H       86.911     -28.921      50.126
  P       85.188     -27.325      51.698
  C       85.606     -24.756      51.690
  O       85.006     -25.868      51.039
  C       85.078     -23.444      51.100
  O       85.805     -23.143      49.886
  C       83.589     -23.493      50.754
  O       82.968     -22.274      51.166
  C       83.563     -23.625      49.242
  O       82.362     -23.107      48.673
  C       84.851     -22.899      48.836
  N       85.352     -23.362      47.544
  C       84.664     -22.926      46.408
  O       83.677     -22.197      46.523
  N       85.073     -23.366      45.175
  C       86.047     -24.217      45.086
  N       86.392     -24.633      43.838
  C       86.771     -24.742      46.261
  C       86.380     -24.273      47.445
  O       84.869     -27.081      53.246
  O       84.364     -28.399      51.070
  H       82.460     -23.121      47.695
  H       83.898     -27.118      53.425
  H       87.565     -25.462      46.137
  H       86.853     -24.604      48.363
  H       84.682     -21.815      48.778
  H       83.632     -24.686      48.969
  H       83.070     -24.327      51.224
  H       85.296     -22.635      51.806
  H       85.866     -24.260      43.058
  H       86.690     -24.808      51.555
  H       87.113     -25.315      43.653
  H       85.373     -24.796      52.758
  P       81.943     -22.389      52.397
  C       80.108     -23.493      50.936
  O       80.941     -23.604      52.080
  O       81.028     -21.086      52.243
  O       82.614     -22.461      53.728
  H       81.326     -20.386      52.854
  H       79.499     -24.369      50.852
  H       80.715     -23.395      50.061
  H       79.481     -22.631      51.033

 6  7  8  9  10  11  12  13  14  15  16  26  30  31  32  33  35 0
 6-311+G(2d,p)
 ****
 37  38 0
 6-311+G(2d,p)
 ****
 1  2  3  4  5  17  18  19  20  21  22  23  24  25 0
 3-21G
 ****
 27  28  29  34  36  39  40  41  42  43  44  45  46 0
 3-21G
 ****


