%nproc=1
%NoSave
%Mem=1900MB
#P OB98/GEN NMR

erre ene a

0 1
  C      234.966    -532.424     -92.751
  O      234.003    -531.399     -92.622
  H      235.960    -531.998     -92.586
  H      234.925    -532.835     -93.762
  H      234.796    -533.217     -92.019
  P      232.475    -531.846     -92.429
  C      232.017    -530.117     -90.550
  O      231.690    -530.567     -91.855
  C      230.874    -529.281     -89.970
  O      230.782    -528.034     -90.725
  C      229.500    -529.967     -90.035
  O      228.756    -529.620     -88.858
  C      228.843    -529.293     -91.227
  O      227.423    -529.365     -91.173
  C      229.402    -527.883     -91.096
  N      226.361    -524.671     -93.473
  C      226.365    -525.101     -92.163
  N      225.368    -524.655     -91.370
  N      227.268    -525.906     -91.666
  C      228.222    -526.260     -92.565
  C      228.328    -525.908     -93.887
  C      227.312    -525.031     -94.430
  O      227.244    -524.633     -95.587
  N      229.405    -526.529     -94.475
  C      229.930    -527.267     -93.510
  N      229.245    -527.136     -92.332
  O      232.558    -532.834     -91.171
  O      231.847    -532.503     -93.612
  H      227.065    -528.865     -91.931
  H      232.631    -533.757     -91.479
  H      225.634    -524.064     -93.809
  H      230.783    -527.922     -93.621
  H      228.898    -527.301     -90.310
  H      229.181    -529.767     -92.157
  H      224.655    -524.010     -91.669
  H      229.552    -531.054     -90.131
  H      225.378    -524.929     -90.393
  H      231.126    -529.011     -88.937
  H      232.921    -529.499     -90.600
  H      232.219    -530.979     -89.909
  P      228.606    -530.724     -87.708
  C      228.472    -528.621     -86.176
  O      228.149    -529.998     -86.354
  O      230.125    -531.142     -87.406
  O      227.786    -531.907     -88.106
  H      230.168    -532.090     -87.175
  H      228.101    -528.287     -85.230
  H      228.023    -528.045     -86.958
  H      229.534    -528.497     -86.206

 6  7  8  9  10  11  12  13  14  15  26  29  33  34 0
 6-311+G(2d,p)
 ****
 36  38  39  40  41 0
 6-311+G(2d,p)
 ****
 1  2  3  4  5  16  17  18  19  20  21  22  23  24  25 0
 3-21G
 ****
 27  28  30  31  32  35  37  42  43  44  45  46  47 0
 3-21G
 ****
 48  49 0
 3-21G
 ****


