%nproc=1
%NoSave
%Mem=1900MB
#P OB98/GEN NMR

erre ene a

0 1
  C        1.255     114.214      34.161
  O        1.554     112.881      33.787
  H        0.856     114.213      35.179
  H        0.500     114.628      33.486
  H        2.158     114.832      34.133
  P        2.365     112.691      32.418
  C        0.195     113.051      30.987
  O        1.534     113.443      31.262
  C       -0.298     113.727      29.711
  O       -0.373     115.157      29.885
  C        0.628     113.559      28.517
  O        0.596     112.254      27.983
  C        0.067     114.615      27.573
  O       -1.049     114.117      26.825
  C       -0.382     115.726      28.554
  N        0.456     116.907      28.450
  C        0.033     117.862      27.514
  O       -0.997     117.676      26.862
  N        0.808     118.976      27.316
  C        1.919     119.114      27.972
  N        2.656     120.227      27.707
  C        2.401     118.132      28.966
  C        1.628     117.061      29.153
  O        2.129     111.144      32.090
  O        3.801     113.091      32.481
  H       -0.758     113.270      26.428
  H        1.198     110.868      32.146
  H        3.327     118.301      29.496
  H        1.906     116.290      29.863
  H       -1.420     116.023      28.348
  H        0.816     114.945      26.847
  H        1.653     113.853      28.787
  H       -1.306     113.350      29.490
  H        2.317     120.845      26.979
  H       -0.461     113.303      31.829
  H        3.572     120.400      28.095
  H        0.183     111.962      30.871
  P        1.931     111.530      27.471
  C        1.181     111.877      25.029
  O        2.216     112.081      25.986
  O        1.934     110.042      27.583
  O        3.084     112.251      28.319
  H        3.145     113.214      28.191
  H        1.482     112.282      24.086
  H        0.289     112.367      25.359
  H        0.994     110.829      24.924

 6  7  8  9  10  11  12  13  14  15  16  26  30  31  32  33  35 0
 6-311+G(2d,p)
 ****
 37  38 0
 6-311+G(2d,p)
 ****
 1  2  3  4  5  17  18  19  20  21  22  23  24  25 0
 3-21G
 ****
 27  28  29  34  36  39  40  41  42  43  44  45  46 0
 3-21G
 ****


