%nproc=1
%NoSave
%Mem=1900MB
#P OB98/GEN NMR

erre ene a

0 1
  C     -141.548    -105.313     100.557
  O     -142.855    -105.197     100.035
  H     -141.397    -106.343     100.890
  H     -141.412    -104.646     101.413
  H     -140.809    -105.086      99.784
  P     -143.368    -103.744      99.583
  C     -144.615    -103.506     101.841
  O     -143.633    -102.971     100.968
  C     -145.463    -102.383     102.434
  O     -146.638    -102.909     103.085
  C     -144.765    -101.552     103.507
  O     -143.798    -100.656     102.986
  C     -145.963    -100.832     104.104
  O     -146.377     -99.773     103.221
  C     -147.013    -101.970     104.132
  N     -147.084    -102.648     105.425
  C     -147.600    -101.906     106.495
  O     -147.968    -100.744     106.330
  N     -147.652    -102.487     107.739
  C     -147.210    -103.694     107.905
  N     -147.241    -104.206     109.167
  C     -146.675    -104.517     106.804
  C     -146.636    -103.939     105.605
  O     -144.500    -103.716      98.608
  O     -142.051    -103.006      99.050
  H     -147.022     -99.231     103.710
  H     -142.318    -102.104      98.746
  H     -146.312    -105.516     106.998
  H     -146.240    -104.474     104.749
  H     -148.008    -101.588     103.879
  H     -145.756    -100.381     105.077
  H     -144.327    -102.196     104.276
  H     -145.809    -101.756     101.602
  H     -147.575    -103.598     109.904
  H     -144.102    -104.067     102.628
  H     -146.674    -105.006     109.425
  H     -145.276    -104.184     101.294
  P     -142.561    -100.254     103.930
  C     -143.222     -97.747     104.184
  O     -143.045     -99.004     104.814
  O     -141.523     -99.610     102.900
  O     -141.964    -101.371     104.727
  H     -140.880    -100.275     102.587
  H     -143.544     -97.028     104.908
  H     -143.960     -97.834     103.415
  H     -142.295     -97.430     103.754

 6  7  8  9  10  11  12  13  14  15  16  26  30  31  32  33  35 0
 6-311+G(2d,p)
 ****
 37  38 0
 6-311+G(2d,p)
 ****
 1  2  3  4  5  17  18  19  20  21  22  23  24  25 0
 3-21G
 ****
 27  28  29  34  36  39  40  41  42  43  44  45  46 0
 3-21G
 ****


