%nproc=1
%NoSave
%Mem=1900MB
#P OB98/GEN NMR

erre ene a

0 1
  C      500.953    -513.797     266.722
  O      499.567    -513.572     266.448
  P      499.181    -512.161     265.809
  C      497.550    -511.362     263.941
  O      497.851    -512.342     264.922
  C      496.195    -511.673     263.285
  O      496.294    -512.793     262.365
  C      495.113    -512.061     264.284
  O      494.634    -510.926     264.979
  C      494.100    -512.710     263.361
  O      493.314    -511.719     262.676
  C      495.003    -513.452     262.348
  N      492.640    -517.998     262.552
  C      492.217    -516.755     262.229
  N      492.891    -515.593     262.199
  C      494.181    -515.795     262.555
  C      494.768    -516.998     262.913
  C      493.947    -518.136     262.917
  N      494.395    -519.383     263.264
  N      496.108    -516.811     263.213
  C      496.310    -515.512     263.050
  N      495.175    -514.862     262.642
  O      500.328    -511.919     264.719
  O      499.116    -511.036     266.810
  H      493.947    -511.120     262.207
  H      500.938    -511.217     265.025
  H      491.160    -516.685     261.944
  H      497.249    -515.000     263.226
  H      494.623    -513.367     261.322
  H      493.394    -513.377     263.885
  H      495.499    -512.801     265.004
  H      495.885    -510.791     262.715
  H      498.332    -511.344     263.175
  H      493.717    -520.140     263.321
  H      495.337    -519.490     263.613
  H      497.541    -510.382     264.427
  P      494.955    -510.821     266.549
  C      495.346    -508.785     268.080
  O      494.767    -509.255     266.874
  O      496.552    -510.987     266.569
  O      494.193    -511.765     267.415
  H      496.975    -510.433     265.877
  H      495.157    -507.711     268.167
  H      496.421    -508.976     268.077
  H      494.874    -509.283     268.942
  H      501.079    -514.772     267.145
  H      501.304    -513.060     267.413
  H      501.512    -513.728     265.812

 3  4  5  6  7  8  9  10  11  12  22  25  29  30  31  32 0
 6-311+G(2d,p)
 ****
 33  36  37 0
 6-311+G(2d,p)
 ****
 1  2  13  14  15  16  17  18  19  20  21  23  24  26 0
 3-21G
 ****
 27  28  34  35  38  39  40  41  42  43  44  45  46  47  48 0
 3-21G
 ****


