%nproc=1
%NoSave
%Mem=1900MB
#P OB98/GEN NMR

erre ene a

0 1
  C     -713.455      67.924    -268.643
  O     -714.012      67.282    -269.768
  P     -714.338      65.708    -269.659
  C     -713.042      65.309    -271.889
  O     -713.208      64.953    -270.512
  C     -711.907      64.490    -272.507
  O     -710.637      64.909    -271.996
  C     -711.987      63.002    -272.223
  O     -712.894      62.317    -273.088
  C     -710.548      62.563    -272.540
  O     -710.371      62.430    -273.952
  C     -709.742      63.768    -271.992
  N     -705.586      62.745    -269.307
  C     -705.704      63.095    -270.638
  N     -704.575      63.122    -271.366
  N     -706.849      63.409    -271.199
  C     -707.904      63.332    -270.363
  C     -707.900      63.000    -269.018
  C     -706.639      62.658    -268.400
  O     -706.469      62.286    -267.248
  N     -709.170      63.036    -268.488
  C     -709.932      63.392    -269.503
  N     -709.229      63.545    -270.665
  O     -715.652      65.532    -270.558
  O     -714.517      65.220    -268.256
  H     -709.432      62.165    -274.086
  H     -716.078      64.687    -270.334
  H     -704.685      62.528    -268.912
  H     -711.004      63.551    -269.436
  H     -708.900      64.004    -272.652
  H     -710.291      61.608    -272.076
  H     -703.674      62.845    -271.012
  H     -712.207      62.795    -271.169
  H     -704.643      63.317    -272.361
  H     -711.914      64.676    -273.596
  H     -712.829      66.362    -271.975
  H     -713.987      65.101    -272.420
  P     -713.047      60.741    -272.880
  C     -712.148      60.084    -275.233
  O     -711.938      60.067    -273.834
  O     -714.436      60.418    -273.615
  O     -713.045      60.305    -271.459
  H     -714.849      59.617    -273.223
  H     -711.209      59.828    -275.732
  H     -712.486      61.058    -275.575
  H     -712.888      59.326    -275.503
  H     -713.295      68.958    -268.865
  H     -712.521      67.464    -268.396
  H     -714.126      67.837    -267.814

 3  4  5  6  7  8  9  10  11  12  23  26  30  31 0
 6-311+G(2d,p)
 ****
 33  35  36  37  38 0
 6-311+G(2d,p)
 ****
 1  2  13  14  15  16  17  18  19  20  21  22  24  25 0
 3-21G
 ****
 27  28  29  32  34  39  40  41  42  43  44  45  46  47  48  49 0
 3-21G
 ****


