%nproc=1
%NoSave
%Mem=1900MB
#P OB98/GEN NMR

erre ene a

0 1
  C       46.903     397.137     389.230
  O       46.999     396.340     390.402
  P       47.910     395.017     390.334
  C       46.381     394.247     392.293
  O       47.077     393.880     391.099
  C       45.228     393.287     392.558
  O       44.096     393.621     391.737
  C       45.541     391.824     392.255
  O       46.245     391.192     393.308
  C       44.137     391.251     392.136
  O       43.591     391.023     393.445
  C       43.382     392.388     391.438
  N       40.211     391.465     387.538
  C       40.007     391.497     388.866
  N       40.908     391.742     389.848
  C       42.138     391.925     389.328
  C       42.504     391.878     387.993
  C       41.472     391.655     387.063
  N       41.670     391.641     385.697
  N       43.851     392.114     387.840
  C       44.294     392.313     389.069
  N       43.293     392.215     390.000
  O       49.103     395.348     391.344
  O       48.406     394.663     388.974
  H       42.689     390.663     393.322
  H       49.892     394.809     391.125
  H       38.991     391.308     389.196
  H       45.323     392.530     389.335
  H       42.361     392.508     391.821
  H       44.111     390.290     391.608
  H       46.061     391.722     391.290
  H       44.930     393.402     393.610
  H       45.979     395.261     392.172
  H       40.860     391.654     385.104
  H       42.560     391.985     385.350
  H       47.084     394.246     393.130
  P       47.573     390.372     392.912
  C       47.782     389.358     395.290
  O       47.612     389.124     393.902
  O       48.757     391.324     393.421
  O       47.684     390.067     391.450
  H       49.566     391.165     392.906
  H       47.481     388.463     395.842
  H       47.166     390.200     395.627
  H       48.828     389.573     395.508
  H       46.269     397.977     389.421
  H       46.490     396.553     388.434
  H       47.877     397.481     388.952

 3  4  5  6  7  8  9  10  11  12  22  25  29  30  31  32 0
 6-311+G(2d,p)
 ****
 33  36  37 0
 6-311+G(2d,p)
 ****
 1  2  13  14  15  16  17  18  19  20  21  23  24  26 0
 3-21G
 ****
 27  28  34  35  38  39  40  41  42  43  44  45  46  47  48 0
 3-21G
 ****


