%nproc=1
%NoSave
%Mem=1900MB
#P OB98/GEN NMR

erre ene a

0 1
  C      464.862     -53.974      51.875
  O      465.820     -53.357      52.714
  H      464.429     -54.844      52.372
  H      464.062     -53.255      51.666
  H      465.323     -54.273      50.928
  P      467.091     -54.242      53.136
  C      465.965     -54.864      55.399
  O      466.535     -55.330      54.182
  C      465.401     -56.043      56.185
  O      464.313     -56.650      55.456
  C      466.402     -57.164      56.440
  O      467.251     -56.885      57.541
  C      465.461     -58.319      56.754
  O      464.956     -58.185      58.092
  C      464.337     -58.085      55.733
  N      463.913     -62.632      53.416
  C      463.667     -62.239      54.690
  N      463.808     -61.011      55.228
  C      464.256     -60.136      54.305
  C      464.558     -60.392      52.981
  C      464.362     -61.713      52.533
  N      464.629     -62.121      51.242
  N      465.026     -59.249      52.351
  C      464.972     -58.315      53.284
  N      464.523     -58.806      54.485
  O      467.943     -53.255      54.063
  O      467.891     -54.809      52.009
  H      464.361     -57.411      58.092
  H      468.871     -53.557      54.109
  H      463.310     -63.017      55.362
  H      465.242     -57.282      53.138
  H      463.348     -58.361      56.125
  H      465.944     -59.295      56.685
  H      466.981     -57.407      55.538
  H      464.997     -55.658      57.134
  H      465.157     -54.162      55.171
  H      464.634     -63.116      51.078
  H      465.106     -61.478      50.620
  H      466.735     -54.350      55.982
  P      468.727     -57.517      57.510
  C      468.014     -59.585      58.925
  O      468.534     -59.102      57.691
  O      469.352     -57.063      58.913
  O      469.568     -57.090      56.348
  H      470.321     -57.003      58.864
  H      467.945     -60.652      58.890
  H      467.041     -59.170      59.089
  H      468.664     -59.295      59.724

 6  7  8  9  10  11  12  13  14  15  25  28  32  33  34  35 0
 6-311+G(2d,p)
 ****
 36  39  40 0
 6-311+G(2d,p)
 ****
 1  2  3  4  5  16  17  18  19  20  21  22  23  24 0
 3-21G
 ****
 26  27  29  30  31  37  38  41  42  43  44  45  46  47 0
 3-21G
 ****
 48 0
 3-21G
 ****


