%nproc=1
%NoSave
%Mem=1900MB
#P OB98/GEN NMR

erre ene a

0 1
  C      -74.358      97.721    -249.891
  O      -75.433      97.676    -250.805
  H      -74.089      98.765    -249.714
  H      -73.489      97.199    -250.298
  H      -74.654      97.267    -248.942
  P      -75.919      96.225    -251.284
  C      -74.656      95.997    -253.544
  O      -74.739      95.611    -252.178
  C      -74.188      94.811    -254.381
  O      -72.846      94.435    -253.990
  C      -75.028      93.555    -254.203
  O      -76.239      93.596    -254.939
  C      -74.072      92.494    -254.721
  O      -74.137      92.373    -256.149
  C      -72.700      93.027    -254.269
  N      -72.185      92.290    -253.118
  C      -71.256      91.295    -253.407
  O      -70.874      91.036    -254.547
  N      -70.802      90.574    -252.337
  C      -71.217      90.713    -251.046
  O      -70.810      89.994    -250.141
  C      -72.213      91.768    -250.803
  C      -72.650      92.495    -251.835
  O      -77.069      96.557    -252.345
  O      -76.406      95.332    -250.191
  H      -77.941      96.360    -251.958
  H      -74.036      93.280    -256.500
  H      -70.126      89.850    -252.525
  H      -72.567      91.904    -249.788
  H      -73.393      93.271    -251.683
  H      -71.969      92.943    -255.083
  H      -74.309      91.518    -254.304
  H      -75.218      93.374    -253.139
  H      -74.167      95.115    -255.436
  H      -73.936      96.815    -253.652
  H      -75.639      96.348    -253.875
  P      -77.559      93.010    -254.239
  C      -77.022      90.712    -255.401
  O      -77.374      91.418    -254.223
  O      -78.643      93.283    -255.382
  O      -77.853      93.642    -252.922
  H      -78.239      93.300    -256.267
  H      -76.948      89.667    -255.182
  H      -76.080      91.068    -255.762
  H      -77.772      90.868    -256.148

 6  7  8  9  10  11  12  13  14  15  16  27  31  32  33  34  35 0
 6-311+G(2d,p)
 ****
 36  37 0
 6-311+G(2d,p)
 ****
 1  2  3  4  5  17  18  19  20  21  22  23  24  25 0
 3-21G
 ****
 26  28  29  30  38  39  40  41  42  43  44  45 0
 3-21G
 ****


