%nproc=1
%NoSave
%Mem=1900MB
#P OB98/GEN NMR

erre ene a

0 1
  C     -127.329     361.676     391.679
  O     -126.878     362.820     392.376
  P     -126.961     364.268     391.686
  C     -129.508     364.200     392.036
  O     -128.450     364.470     391.123
  C     -130.670     365.168     391.812
  O     -130.240     366.538     392.018
  C     -131.235     365.146     390.398
  O     -131.996     363.978     390.149
  C     -132.023     366.449     390.376
  O     -133.298     366.281     391.016
  C     -131.116     367.372     391.217
  N     -130.355     368.302     390.392
  C     -131.111     369.224     389.651
  O     -132.337     369.171     389.658
  N     -130.438     370.178     388.925
  C     -129.146     370.134     388.834
  N     -128.537     371.138     388.154
  C     -128.320     369.078     389.473
  C     -128.987     368.219     390.241
  O     -125.874     364.569     390.711
  O     -126.906     365.290     392.924
  H     -126.224     365.962     392.743
  H     -133.130     365.793     391.842
  H     -127.256     369.054     389.312
  H     -128.471     367.421     390.770
  H     -131.715     367.950     391.936
  H     -132.213     366.798     389.360
  H     -130.413     365.200     389.670
  H     -131.457     364.933     392.540
  H     -129.129     371.849     387.743
  H     -129.124     364.316     393.057
  H     -127.555     371.388     388.296
  H     -129.848     363.166     391.908
  P     -132.278     363.596     388.620
  C     -129.904     362.609     388.329
  O     -130.864     363.545     387.867
  O     -132.974     364.927     388.034
  O     -133.151     362.402     388.419
  H     -133.655     364.675     387.382
  H     -129.164     362.451     387.533
  H     -130.363     361.652     388.584
  H     -129.385     363.017     389.206
  H     -127.196     360.809     392.292
  H     -126.766     361.564     390.776
  H     -128.366     361.789     391.441

 3  4  5  6  7  8  9  10  11  12  13  24  27  28  29  30  32 0
 6-311+G(2d,p)
 ****
 34  35 0
 6-311+G(2d,p)
 ****
 1  2  14  15  16  17  18  19  20  21  22  23  25  26 0
 3-21G
 ****
 31  33  36  37  38  39  40  41  42  43  44  45  46 0
 3-21G
 ****


