%nproc=1
%NoSave
%Mem=1900MB
#P OB98/GEN NMR

erre ene a

0 1
  C      141.001       8.195     469.570
  O      139.890       7.718     468.841
  H      141.899       7.686     469.212
  H      140.869       7.969     470.632
  H      141.133       9.271     469.438
  P      138.519       8.541     468.907
  C      136.151       8.068     469.822
  O      137.528       7.729     469.879
  C      135.413       7.590     471.074
  O      135.354       6.142     471.083
  C      136.179       8.003     472.344
  O      135.312       8.184     473.458
  C      137.075       6.808     472.599
  O      137.525       6.724     473.950
  C      136.169       5.655     472.168
  N      138.396       1.295     473.569
  C      137.870       2.296     474.360
  N      137.965       2.129     475.701
  N      137.312       3.378     473.879
  C      137.347       3.447     472.523
  C      137.869       2.528     471.640
  C      138.446       1.318     472.185
  O      138.939       0.401     471.539
  N      137.742       2.959     470.339
  C      137.156       4.137     470.435
  N      136.885       4.471     471.746
  O      137.861       8.293     467.463
  O      138.648      10.003     469.207
  H      136.744       6.816     474.525
  H      137.250       9.020     467.241
  H      138.799       0.474     473.997
  H      136.901       4.775     469.605
  H      135.505       5.360     472.990
  H      137.968       6.905     471.964
  H      138.534       1.407     476.110
  H      136.758       8.916     472.191
  H      137.854       2.969     476.278
  H      134.381       7.949     471.075
  H      135.735       7.585     468.936
  H      136.033       9.149     469.695
  P      135.694       9.327     474.521
  C      137.298       9.498     476.594
  O      136.817       8.737     475.496
  O      134.391       9.439     475.443
  O      136.049      10.636     473.887
  H      133.894      10.239     475.230
  H      138.039       8.935     477.121
  H      136.487       9.725     477.254
  H      137.730      10.408     476.235

 6  7  8  9  10  11  12  13  14  15  26  29  33  34 0
 6-311+G(2d,p)
 ****
 36  38  39  40  41 0
 6-311+G(2d,p)
 ****
 1  2  3  4  5  16  17  18  19  20  21  22  23  24  25 0
 3-21G
 ****
 27  28  30  31  32  35  37  42  43  44  45  46  47 0
 3-21G
 ****
 48  49 0
 3-21G
 ****


