%nproc=1
%NoSave
%Mem=1900MB
#P OB98/GEN NMR

erre ene a

0 1
  C      417.247      40.348     272.529
  O      415.878      40.291     272.911
  P      414.717      40.161     271.806
  C      413.397      42.302     271.280
  O      414.627      41.610     271.123
  C      413.125      42.561     272.759
  O      414.287      43.198     273.343
  C      411.960      43.509     273.072
  O      410.678      42.889     273.087
  C      412.323      43.948     274.485
  O      411.957      42.922     275.423
  C      413.847      44.080     274.409
  N      415.203      48.559     276.482
  C      414.854      47.371     277.032
  N      414.483      46.228     276.411
  C      414.543      46.378     275.078
  C      414.887      47.522     274.366
  C      415.231      48.651     275.131
  N      415.601      49.850     274.568
  N      414.812      47.293     273.008
  C      414.444      46.031     272.901
  N      414.282      45.432     274.121
  O      413.435      39.608     272.323
  O      415.367      39.259     270.657
  H      410.979      42.926     275.483
  H      414.666      38.906     270.071
  H      414.862      47.340     278.121
  H      414.289      45.509     271.966
  H      414.347      43.750     275.327
  H      411.801      44.862     274.797
  H      411.971      44.379     272.408
  H      412.978      41.592     273.259
  H      412.594      41.682     270.868
  H      415.956      50.568     275.180
  H      415.783      49.877     273.565
  H      413.429      43.241     270.714
  P      409.396      43.859     273.100
  C      407.894      43.887     275.247
  O      409.130      44.208     274.640
  O      408.220      43.339     272.346
  O      409.981      45.229     272.504
  H      410.629      45.684     273.069
  H      407.972      44.065     276.324
  H      407.636      42.847     275.075
  H      407.104      44.541     274.843
  H      417.858      40.433     273.403
  H      417.406      41.198     271.898
  H      417.507      39.456     271.998

 3  4  5  6  7  8  9  10  11  12  22  25  29  30  31  32 0
 6-311+G(2d,p)
 ****
 33  36  37 0
 6-311+G(2d,p)
 ****
 1  2  13  14  15  16  17  18  19  20  21  23  24  26 0
 3-21G
 ****
 27  28  34  35  38  39  40  41  42  43  44  45  46  47  48 0
 3-21G
 ****


