%nproc=1
%NoSave
%Mem=1900MB
#P OB98/GEN NMR

erre ene a

0 1
  C      103.314    -144.753     183.437
  O      103.066    -143.703     182.510
  P      101.550    -143.419     182.074
  C      101.355    -141.381     183.666
  O      100.845    -142.655     183.298
  C      100.232    -140.443     184.109
  O      100.804    -139.159     184.473
  C       99.164    -140.178     183.040
  O       97.916    -140.001     183.719
  C       99.600    -138.850     182.446
  O       98.531    -138.179     181.782
  C      100.123    -138.149     183.697
  N      100.510    -133.124     182.848
  C       99.454    -133.900     183.171
  N       99.431    -135.233     183.383
  C      100.656    -135.761     183.225
  C      101.817    -135.098     182.862
  C      101.717    -133.710     182.672
  N      102.792    -132.914     182.352
  N      102.872    -135.984     182.773
  C      102.357    -137.158     183.076
  N      101.029    -137.067     183.381
  O      100.894    -144.879     182.117
  O      101.380    -142.786     180.736
  H       98.916    -137.506     181.190
  H      100.675    -145.172     181.211
  H       98.506    -133.381     183.282
  H      102.898    -138.093     183.088
  H       99.310    -137.741     184.314
  H      100.402    -139.014     181.717
  H       99.079    -140.968     182.287
  H       99.771    -140.859     185.014
  H      101.855    -140.939     182.799
  H      102.668    -131.915     182.368
  H      103.726    -133.309     182.407
  H      102.088    -141.499     184.469
  P       96.638    -140.742     183.097
  C       97.028    -142.941     184.419
  O       96.946    -142.312     183.155
  O       96.730    -140.391     181.539
  O       95.337    -140.310     183.688
  H       95.837    -140.399     181.143
  H       96.657    -143.964     184.331
  H       96.438    -142.414     185.178
  H       98.075    -142.967     184.740
  H      104.365    -144.819     183.628
  H      102.967    -145.679     183.028
  H      102.797    -144.551     184.352

 3  4  5  6  7  8  9  10  11  12  22  25  29  30  31  32 0
 6-311+G(2d,p)
 ****
 33  36  37 0
 6-311+G(2d,p)
 ****
 1  2  13  14  15  16  17  18  19  20  21  23  24  26 0
 3-21G
 ****
 27  28  34  35  38  39  40  41  42  43  44  45  46  47  48 0
 3-21G
 ****


