%nproc=1
%NoSave
%Mem=1900MB
#P OB98/GEN NMR

erre ene a

0 1
  C      217.295      74.653     -30.160
  O      217.551      75.574     -29.119
  H      216.852      75.195     -31.003
  H      216.586      73.891     -29.826
  H      218.219      74.178     -30.497
  P      218.354      75.071     -27.825
  C      217.877      73.485     -25.848
  O      217.328      74.213     -26.941
  C      216.783      73.166     -24.832
  O      216.361      74.376     -24.164
  C      215.518      72.584     -25.451
  O      215.693      71.227     -25.816
  C      214.514      72.831     -24.337
  O      214.599      71.814     -23.332
  C      214.980      74.193     -23.778
  N      214.147      75.297     -24.255
  C      213.235      75.817     -23.342
  O      213.117      75.405     -22.189
  N      212.406      76.799     -23.821
  C      212.311      77.195     -25.126
  O      211.395      77.891     -25.555
  C      213.340      76.657     -26.032
  C      214.189      75.738     -25.564
  O      219.108      76.125     -27.082
  O      219.342      73.951     -28.408
  H      220.240      74.329     -28.494
  H      214.022      72.114     -22.597
  H      211.712      77.152     -23.175
  H      213.346      77.003     -27.059
  H      214.935      75.300     -26.223
  H      214.956      74.187     -22.681
  H      213.490      72.841     -24.717
  H      215.227      73.176     -26.329
  H      217.199      72.485     -24.077
  H      218.653      74.098     -25.370
  H      218.334      72.564     -26.227
  P      214.954      70.634     -27.107
  C      212.554      70.086     -27.852
  O      213.372      70.673     -26.845
  O      215.476      69.321     -27.591
  O      215.153      71.769     -28.222
  H      215.495      71.353     -29.039
  H      211.525      70.171     -27.570
  H      212.810      69.053     -27.962
  H      212.712      70.593     -28.781

 6  7  8  9  10  11  12  13  14  15  16  27  31  32  33  34  35 0
 6-311+G(2d,p)
 ****
 36  37 0
 6-311+G(2d,p)
 ****
 1  2  3  4  5  17  18  19  20  21  22  23  24  25 0
 3-21G
 ****
 26  28  29  30  38  39  40  41  42  43  44  45 0
 3-21G
 ****


