%nproc=1
%NoSave
%Mem=1900MB
#P OB98/GEN NMR

erre ene a

0 1
  C     -260.663     262.255    -179.392
  O     -261.313     261.565    -178.344
  H     -261.361     262.364    -180.228
  H     -259.792     261.688    -179.733
  H     -260.352     263.250    -179.060
  P     -260.469     261.337    -176.996
  C     -261.469     263.417    -175.793
  O     -260.306     262.783    -176.318
  C     -261.155     264.019    -174.425
  O     -260.189     265.088    -174.580
  C     -262.355     264.652    -173.730
  O     -263.184     263.682    -173.111
  C     -261.668     265.583    -172.738
  O     -261.274     264.889    -171.548
  C     -260.425     266.038    -173.515
  N     -258.696     270.831    -173.302
  C     -258.299     269.697    -172.676
  N     -258.804     268.451    -172.805
  C     -259.814     268.440    -173.693
  C     -260.333     269.515    -174.396
  C     -259.725     270.763    -174.178
  N     -260.149     271.921    -174.784
  N     -261.401     269.113    -175.176
  C     -261.522     267.819    -174.954
  N     -260.583     267.370    -174.066
  O     -259.000     261.008    -177.547
  O     -260.984     260.263    -176.097
  H     -260.675     264.168    -171.830
  H     -258.882     260.043    -177.606
  H     -257.471     269.807    -171.983
  H     -262.270     267.173    -175.398
  H     -259.525     266.049    -172.889
  H     -262.327     266.398    -172.434
  H     -262.934     265.256    -174.443
  H     -260.705     263.240    -173.793
  H     -262.269     262.673    -175.686
  H     -261.792     264.193    -176.492
  H     -259.680     272.785    -174.565
  H     -260.987     271.900    -175.360
  P     -264.654     264.116    -172.645
  C     -265.896     262.651    -174.405
  O     -265.631     263.956    -173.911
  O     -264.526     265.701    -172.456
  O     -265.137     263.438    -171.402
  H     -264.420     265.923    -171.514
  H     -266.558     262.715    -175.243
  H     -266.350     262.064    -173.635
  H     -264.979     262.192    -174.710

 6  7  8  9  10  11  12  13  14  15  25  28  32  33  34  35 0
 6-311+G(2d,p)
 ****
 36  37  40 0
 6-311+G(2d,p)
 ****
 1  2  3  4  5  16  17  18  19  20  21  22  23  24 0
 3-21G
 ****
 26  27  29  30  31  38  39 41  42  43  44  45  46  47  48 0
 3-21G
 ****


