%nproc=1
%NoSave
%Mem=1900MB
#P OB98/GEN NMR

erre ene a

0 1
  C      105.394    -261.478    -235.311
  O      104.785    -261.713    -234.056
  H      105.975    -262.362    -235.590
  H      106.070    -260.620    -235.243
  H      104.643    -261.298    -236.085
  P      103.663    -260.693    -233.540
  C      103.607    -258.820    -231.763
  O      104.415    -259.599    -232.637
  C      104.472    -257.877    -230.927
  O      105.333    -258.680    -230.054
  C      105.399    -256.961    -231.760
  O      105.543    -255.726    -231.039
  C      106.689    -257.758    -231.746
  O      107.784    -256.987    -232.169
  C      106.687    -258.240    -230.291
  N      107.644    -259.296    -230.026
  C      108.772    -258.968    -229.271
  O      108.984    -257.847    -228.808
  N      109.668    -259.983    -229.074
  C      109.558    -261.257    -229.547
  O      110.387    -262.137    -229.319
  C      108.363    -261.540    -230.359
  C      107.479    -260.560    -230.558
  O      102.459    -261.314    -232.907
  O      103.273    -259.864    -234.852
  H      102.460    -260.237    -235.246
  H      108.154    -256.478    -231.420
  H      110.491    -259.763    -228.533
  H      108.257    -262.536    -230.766
  H      106.583    -260.732    -231.154
  H      106.871    -257.403    -229.611
  H      106.614    -258.607    -232.436
  H      105.005    -256.758    -232.761
  H      103.820    -257.282    -230.265
  H      103.058    -259.501    -231.105
  H      102.890    -258.241    -232.355
  P      105.677    -254.297    -231.753
  C      107.432    -252.983    -233.117
  O      107.186    -254.108    -232.281
  O      105.194    -253.160    -230.916
  O      104.815    -254.415    -233.102
  H      104.385    -253.547    -233.277
  H      108.464    -252.968    -233.400
  H      107.195    -252.085    -232.586
  H      106.823    -253.050    -233.994

 6  7  8  9  10  11  12  13  14  15  16  27  31  32  33  34  35 0
 6-311+G(2d,p)
 ****
 36  37 0
 6-311+G(2d,p)
 ****
 1  2  3  4  5  17  18  19  20  21  22  23  24  25 0
 3-21G
 ****
 26  28  29  30  38  39  40  41  42  43  44  45 0
 3-21G
 ****


