%nproc=1
%NoSave
%Mem=1900MB
#P OB98/GEN NMR

erre ene a

0 1
  C     -274.662     177.583    -270.091
  O     -274.256     176.972    -271.304
  P     -274.502     175.408    -271.557
  C     -272.284     174.546    -270.576
  O     -273.051     174.746    -271.758
  C     -270.788     174.570    -270.896
  O     -270.471     173.427    -271.730
  C     -270.345     175.820    -271.640
  O     -269.036     176.184    -271.193
  C     -270.253     175.378    -273.091
  O     -269.318     176.195    -273.824
  C     -269.846     173.911    -272.935
  N     -268.483     170.319    -276.338
  C     -267.807     170.898    -275.324
  N     -268.221     171.861    -274.475
  C     -269.502     172.188    -274.722
  C     -270.322     171.681    -275.717
  C     -269.765     170.701    -276.557
  N     -270.460     170.102    -277.584
  N     -271.567     172.284    -275.677
  C     -271.503     173.116    -274.667
  N     -270.278     173.089    -274.046
  O     -275.484     175.085    -272.629
  O     -274.963     174.840    -270.134
  H     -269.513     177.127    -273.601
  H     -275.655     174.163    -270.247
  H     -266.790     170.541    -275.175
  H     -272.302     173.766    -274.344
  H     -268.760     173.801    -272.820
  H     -271.231     175.481    -273.570
  H     -271.033     176.664    -271.506
  H     -270.231     174.455    -269.954
  H     -272.547     173.570    -270.155
  H     -270.022     169.324    -278.052
  H     -271.461     170.258    -277.636
  H     -272.537     175.319    -269.844
  P     -268.830     177.738    -270.809
  C     -267.012     177.649    -272.673
  O     -267.386     178.113    -271.398
  O     -269.061     177.991    -269.357
  O     -269.880     178.444    -271.792
  H     -270.063     177.891    -272.582
  H     -265.990     177.975    -272.883
  H     -267.674     178.074    -273.438
  H     -267.053     176.556    -272.716
  H     -274.412     178.623    -270.114
  H     -274.161     177.114    -269.270
  H     -275.720     177.473    -269.973

 3  4  5  6  7  8  9  10  11  12  22  25  29  30  31  32 0
 6-311+G(2d,p)
 ****
 33  36  37 0
 6-311+G(2d,p)
 ****
 1  2  13  14  15  16  17  18  19  20  21  23  24  26 0
 3-21G
 ****
 27  28  34  35  38  39  40  41  42  43  44  45  46  47  48 0
 3-21G
 ****


