%nproc=1
%NoSave
%Mem=1900MB
#P OB98/GEN NMR

erre ene a

0 1
  C     -304.632     301.009     197.127
  O     -304.064     301.519     195.937
  H     -304.656     299.916     197.069
  H     -305.655     301.375     197.248
  H     -304.028     301.305     197.990
  P     -304.046     303.119     195.781
  C     -305.775     302.879     193.839
  O     -305.468     303.446     195.106
  C     -307.264     303.024     193.548
  O     -308.046     302.311     194.530
  C     -307.779     304.461     193.595
  O     -307.464     305.211     192.433
  C     -309.276     304.199     193.704
  O     -309.786     303.778     192.428
  C     -309.290     303.039     194.728
  N     -309.403     303.499     196.116
  C     -310.698     303.636     196.631
  O     -311.684     303.386     195.932
  N     -310.853     304.094     197.913
  C     -309.813     304.370     198.634
  N     -310.030     304.826     199.900
  C     -308.429     304.228     198.142
  C     -308.301     303.793     196.891
  O     -303.023     303.360     194.574
  O     -303.742     303.892     197.017
  H     -310.636     303.335     192.602
  H     -303.049     304.308     194.294
  H     -307.590     304.481     198.774
  H     -307.314     303.662     196.458
  H     -310.112     302.345     194.522
  H     -309.845     305.077     194.005
  H     -307.443     304.982     194.497
  H     -307.465     302.561     192.571
  H     -310.989     304.972     200.193
  H     -305.497     301.820     193.859
  H     -309.296     305.207     200.484
  H     -305.203     303.384     193.054
  P     -307.771     306.784     192.466
  C     -309.172     306.400     190.304
  O     -309.088     307.024     191.584
  O     -306.598     307.408     191.570
  O     -307.802     307.390     193.837
  H     -306.337     308.287     191.903
  H     -310.103     306.655     189.843
  H     -309.110     305.338     190.420
  H     -308.365     306.739     189.688

 6  7  8  9  10  11  12  13  14  15  16  26  30  31  32  33  35 0
 6-311+G(2d,p)
 ****
 37  38 0
 6-311+G(2d,p)
 ****
 1  2  3  4  5  17  18  19  20  21  22  23  24  25 0
 3-21G
 ****
 27  28  29  34  36  39  40  41  42  43  44  45  46 0
 3-21G
 ****


