%nproc=1
%NoSave
%Mem=1900MB
#P OB98/GEN NMR

erre ene a

0 1
  C     1459.202     835.548    2681.863
  O     1458.220     836.553    2682.068
  P     1457.757     837.623    2680.982
  C     1455.183     837.267    2681.513
  O     1456.229     837.260    2680.564
  C     1453.901     836.675    2680.933
  O     1453.606     837.360    2679.650
  C     1454.020     835.159    2680.588
  O     1452.877     834.410    2680.938
  C     1454.425     835.171    2679.121
  O     1454.182     833.927    2678.459
  C     1453.669     836.394    2678.597
  N     1455.308     835.649    2673.797
  C     1454.843     834.742    2674.712
  N     1454.862     833.431    2674.337
  N     1454.474     835.034    2675.900
  C     1454.606     836.336    2676.211
  C     1455.006     837.384    2675.370
  C     1455.383     837.023    2674.037
  O     1455.777     837.799    2673.165
  N     1455.014     838.616    2676.021
  C     1454.575     838.299    2677.232
  N     1454.311     836.979    2677.417
  O     1458.698     837.951    2679.866
  O     1457.556     838.978    2681.890
  H     1453.201     833.949    2678.227
  H     1457.750     839.719    2681.264
  H     1455.575     835.346    2672.842
  H     1454.434     839.062    2678.020
  H     1452.652     836.142    2678.288
  H     1455.515     835.354    2679.066
  H     1455.252     833.105    2673.426
  H     1454.820     834.709    2681.188
  H     1454.758     832.732    2675.100
  H     1453.042     836.871    2681.620
  H     1455.046     838.290    2681.804
  H     1455.500     836.730    2682.424
  P     1452.265     834.098    2682.419
  C     1449.803     834.269    2681.655
  O     1450.823     834.832    2682.501
  O     1453.161     835.020    2683.420
  O     1452.308     832.669    2682.818
  H     1453.579     834.434    2684.031
  H     1448.966     834.997    2681.609
  H     1449.440     833.324    2682.083
  H     1450.183     834.139    2680.644
  H     1459.314     834.971    2682.757
  H     1460.136     836.007    2681.616
  H     1458.896     834.908    2681.062

 3  4  5  6  7  8  9  10  11  12  23  26  30  31 0
 6-311+G(2d,p)
 ****
 33  35  36  37  38 0
 6-311+G(2d,p)
 ****
 1  2  13  14  15  16  17  18  19  20  21  22  24  25 0
 3-21G
 ****
 27  28  29  32  34  39  40  41  42  43  44  45  46  47  48  49 0
 3-21G
 ****


