%nproc=1
%NoSave
%Mem=1900MB
#P OB98/GEN NMR

erre ene a

0 1
  C      244.130    -100.098    -179.284
  O      244.392    -100.768    -180.500
  H      243.104     -99.721    -179.308
  H      244.812     -99.254    -179.146
  H      244.227    -100.793    -178.444
  P      245.911    -101.190    -180.817
  C      248.061     -99.905    -181.446
  O      246.713     -99.807    -180.988
  C      248.712     -98.522    -181.532
  O      248.161     -97.781    -182.643
  C      248.462     -97.650    -180.312
  O      249.123     -98.088    -179.144
  C      248.732     -96.252    -180.846
  O      250.107     -95.879    -180.797
  C      248.278     -96.381    -182.321
  N      247.037     -95.658    -182.577
  C      247.165     -94.290    -182.784
  O      248.241     -93.692    -182.737
  N      246.000     -93.608    -183.008
  C      244.748     -94.145    -182.990
  O      243.735     -93.472    -183.157
  C      244.670     -95.593    -182.744
  C      245.803     -96.276    -182.550
  O      246.097    -102.143    -181.961
  O      246.448    -101.750    -179.418
  H      250.159     -94.939    -181.061
  H      247.272    -102.281    -179.542
  H      246.076     -92.615    -183.169
  H      243.692     -96.053    -182.721
  H      245.773     -97.345    -182.363
  H      249.046     -95.973    -182.992
  H      248.176     -95.494    -180.287
  H      247.390     -97.688    -180.080
  H      249.785     -98.655    -181.712
  H      248.041    -100.355    -182.445
  H      248.633    -100.556    -180.776
  P      248.475     -98.015    -177.686
  C      247.990     -96.165    -175.925
  O      248.668     -96.519    -177.127
  O      248.747     -99.162    -176.769
  O      246.900     -98.043    -178.040
  H      246.447     -98.524    -177.321
  H      248.211     -95.148    -175.677
  H      248.315     -96.804    -175.131
  H      246.935     -96.277    -176.064

 6  7  8  9  10  11  12  13  14  15  16  26  31  32  33  34  35 0
 6-311+G(2d,p)
 ****
 36  37 0
 6-311+G(2d,p)
 ****
 1  2  3  4  5  17  18  19  20  21  22  23  24  25 0
 3-21G
 ****
 27  28  29  30  38  39  40  41  42  43  44  45 0
 3-21G
 ****


