%nproc=1
%NoSave
%Mem=1900MB
#P OB98/GEN NMR

erre ene a

0 1
  C      -55.776     243.752    -308.079
  O      -54.539     244.433    -308.027
  H      -55.585     242.677    -308.011
  H      -56.292     243.959    -309.020
  H      -56.409     244.046    -307.236
  P      -54.535     246.029    -308.175
  C      -53.472     245.988    -310.525
  O      -53.330     246.399    -309.168
  C      -52.539     246.813    -311.427
  O      -52.988     248.191    -311.391
  C      -51.075     246.771    -310.952
  O      -50.163     246.381    -311.977
  C      -50.872     248.138    -310.308
  O      -49.537     248.598    -310.303
  C      -51.858     249.030    -311.078
  N      -52.284     250.219    -310.341
  C      -51.675     251.429    -310.672
  O      -50.829     251.579    -311.557
  N      -52.088     252.514    -309.944
  C      -53.018     252.508    -308.946
  O      -53.346     253.520    -308.331
  C      -53.603     251.199    -308.626
  C      -53.218     250.129    -309.322
  O      -54.544     246.796    -306.892
  O      -55.839     246.341    -309.055
  H      -49.503     249.400    -309.747
  H      -56.554     246.671    -308.477
  H      -51.662     253.399    -310.184
  H      -54.335     251.157    -307.827
  H      -53.632     249.148    -309.118
  H      -51.413     249.365    -312.017
  H      -51.200     248.077    -309.256
  H      -50.940     245.994    -310.188
  H      -52.641     246.459    -312.460
  H      -54.519     246.149    -310.814
  H      -53.234     244.926    -310.618
  P      -49.373     244.995    -312.014
  C      -47.454     246.245    -310.737
  O      -47.830     245.287    -311.717
  O      -49.687     244.107    -313.171
  O      -49.879     244.245    -310.671
  H      -49.883     243.281    -310.873
  H      -46.387     246.299    -310.683
  H      -47.845     245.954    -309.785
  H      -47.847     247.203    -311.006

 6  7  8  9  10  11  12  13  14  15  16  26  31  32  33  34  35 0
 6-311+G(2d,p)
 ****
 36  37 0
 6-311+G(2d,p)
 ****
 1  2  3  4  5  17  18  19  20  21  22  23  24  25 0
 3-21G
 ****
 27  28  29  30  38  39  40  41  42  43  44  45 0
 3-21G
 ****


