%nproc=1
%NoSave
%Mem=1900MB
#P OB98/GEN NMR

erre ene a

0 1
  C     -437.695      56.050    -100.590
  O     -438.133      54.720    -100.786
  H     -436.874      56.075     -99.869
  H     -437.335      56.445    -101.544
  H     -438.521      56.673    -100.239
  P     -438.713      53.952     -99.502
  C     -441.190      54.084    -100.276
  O     -440.217      54.482     -99.319
  C     -442.558      53.999     -99.610
  O     -442.525      53.051     -98.520
  C     -443.043      55.310     -99.002
  O     -443.609      56.175     -99.972
  C     -444.099      54.797     -98.039
  O     -445.293      54.455     -98.765
  C     -443.429      53.531     -97.488
  N     -443.713      53.786     -92.386
  C     -444.649      53.562     -93.330
  N     -444.495      53.515     -94.670
  C     -443.213      53.728     -95.007
  C     -442.150      53.978     -94.156
  C     -442.437      53.996     -92.781
  N     -441.485      54.239     -91.814
  N     -440.987      54.182     -94.874
  C     -441.341      54.025     -96.133
  N     -442.677      53.759     -96.267
  O     -437.938      54.631     -98.275
  O     -438.571      52.467     -99.516
  H     -445.918      54.082     -98.115
  H     -437.963      54.043     -97.498
  H     -445.659      53.403     -92.962
  H     -440.670      54.093     -96.980
  H     -444.149      52.730     -97.284
  H     -444.381      55.531     -97.283
  H     -442.249      55.809     -98.433
  H     -443.275      53.626    -100.354
  H     -440.920      53.102    -100.676
  H     -441.825      54.414     -90.881
  H     -440.569      54.543     -92.108
  H     -441.208      54.810    -101.095
  P     -443.731      57.730     -99.591
  C     -441.230      57.813    -100.299
  O     -442.229      58.248     -99.381
  O     -444.327      57.696     -98.109
  O     -444.573      58.536    -100.524
  H     -444.823      58.513     -97.914
  H     -440.287      58.240    -100.029
  H     -441.493      58.126    -101.288
  H     -441.159      56.746    -100.270

 6  7  8  9  10  11  12  13  14  15  25  28  32  33  34  35 0
 6-311+G(2d,p)
 ****
 36  39  40 0
 6-311+G(2d,p)
 ****
 1  2  3  4  5  16  17  18  19  20  21  22  23  24 0
 3-21G
 ****
 26  27  29  30  31  37  38  41  42  43  44  45  46  47 0
 3-21G
 ****
 48 0
 3-21G
 ****


