%nproc=1
%NoSave
%Mem=1900MB
#P OB98/GEN NMR

erre ene a

0 1
  C     -337.451       1.837     417.440
  O     -336.942       1.237     418.616
  H     -336.737       1.665     416.627
  H     -337.550       2.915     417.601
  H     -338.417       1.409     417.160
  P     -337.943       0.941     419.829
  C     -337.339       3.036     421.206
  O     -337.329       1.611     421.150
  C     -337.072       3.552     422.627
  O     -338.076       3.049     423.530
  C     -335.720       3.069     423.183
  O     -334.605       3.850     422.805
  C     -335.965       3.138     424.683
  O     -335.707       4.461     425.181
  C     -337.459       2.806     424.808
  N     -337.697      -0.544     428.670
  C     -337.337       0.794     428.696
  N     -336.926       1.284     429.891
  N     -337.347       1.571     427.642
  C     -337.692       0.919     426.497
  C     -338.055      -0.404     426.345
  C     -338.085      -1.236     427.530
  O     -338.390      -2.426     427.565
  N     -338.330      -0.695     425.031
  C     -338.058       0.418     424.390
  N     -337.690       1.433     425.237
  O     -337.745      -0.629     420.109
  O     -339.385       1.259     419.556
  H     -335.912       4.479     426.134
  H     -338.552      -1.001     420.513
  H     -337.691      -1.081     429.523
  H     -338.145       0.545     423.308
  H     -337.954       3.453     425.536
  H     -335.305       2.453     425.234
  H     -336.787       0.699     430.699
  H     -335.562       2.017     422.913
  H     -336.409       2.156     429.886
  H     -337.148       4.639     422.637
  H     -338.321       3.361     420.876
  H     -336.608       3.454     420.512
  P     -333.615       3.310     421.667
  C     -331.524       3.110     423.207
  O     -332.124       3.747     422.103
  O     -333.940       4.280     420.434
  O     -333.769       1.880     421.313
  H     -334.568       3.851     419.829
  H     -330.545       3.512     423.362
  H     -331.452       2.059     423.017
  H     -332.119       3.275     424.081

 6  7  8  9  10  11  12  13  14  15  26  29  33  34 0
 6-311+G(2d,p)
 ****
 36  38  39  40  41 0
 6-311+G(2d,p)
 ****
 1  2  3  4  5  16  17  18  19  20  21  22  23  24  25 0
 3-21G
 ****
 27  28  30  31  32  35  37  42  43  44  45  46  47 0
 3-21G
 ****
 48  49 0
 3-21G
 ****


