%nproc=1
%NoSave
%Mem=1900MB
#P OB98/GEN NMR

erre ene a

0 1
  C     -135.391     124.078     -38.316
  O     -134.820     123.496     -39.477
  P     -134.078     122.081     -39.304
  C     -136.198     120.820     -40.135
  O     -135.236     120.983     -39.098
  C     -136.028     119.472     -40.845
  O     -136.226     118.407     -39.882
  C     -137.001     119.249     -42.002
  O     -136.304     118.543     -43.033
  C     -138.063     118.343     -41.409
  O     -138.731     117.580     -42.414
  C     -137.222     117.513     -40.420
  N     -138.042     116.923     -39.365
  C     -139.017     115.997     -39.762
  O     -139.208     115.781     -40.958
  N     -139.787     115.390     -38.798
  C     -139.663     115.751     -37.558
  N     -140.440     115.115     -36.637
  C     -138.730     116.806     -37.113
  C     -137.945     117.328     -38.053
  O     -133.415     122.197     -37.853
  O     -133.072     121.775     -40.364
  H     -139.259     116.880     -41.968
  H     -132.581     121.697     -37.809
  H     -138.692     117.096     -36.070
  H     -137.212     118.093     -37.815
  H     -136.694     116.704     -40.946
  H     -138.808     118.937     -40.871
  H     -137.402     120.183     -42.408
  H     -134.990     119.404     -41.200
  H     -141.084     114.406     -36.973
  H     -136.058     121.613     -40.876
  H     -140.415     115.333     -35.650
  H     -137.201     120.914     -39.721
  P     -136.713     118.841     -44.555
  C     -135.164     120.890     -44.463
  O     -136.466     120.416     -44.746
  O     -138.318     118.773     -44.473
  O     -136.191     117.937     -45.622
  H     -138.694     118.881     -45.366
  H     -135.102     121.942     -44.760
  H     -134.420     120.319     -45.019
  H     -134.966     120.824     -43.388
  H     -135.849     125.010     -38.573
  H     -134.625     124.245     -37.588
  H     -136.129     123.417     -37.912

 3  4  5  6  7  8  9  10  11  12  13  21  23  27  28  29  30  32 0
 6-311+G(2d,p)
 ****
 34  35 0
 6-311+G(2d,p)
 ****
 1  2  14  15  16  17  18  19  20  22  24  25  26 0
 3-21G
 ****
 31  33  36  37  38  39  40  41  42  43  44  45  46 0
 3-21G
 ****


