%nproc=1
%NoSave
%Mem=1900MB
#P OB98/GEN NMR

erre ene a

0 1
  C      634.479    1268.547     104.471
  O      633.273    1268.534     105.244
  P      633.209    1268.349     106.818
  C      632.543    1270.798     107.455
  O      633.506    1269.771     107.497
  C      633.123    1272.191     107.752
  O      634.219    1272.478     106.836
  C      632.073    1273.287     107.511
  O      631.149    1273.593     108.533
  C      632.859    1274.493     107.001
  O      633.231    1275.391     108.054
  C      634.134    1273.850     106.409
  N      635.342    1276.644     102.282
  C      635.403    1276.985     103.626
  N      635.796    1278.248     103.927
  N      635.103    1276.154     104.593
  C      634.625    1274.974     104.182
  C      634.508    1274.515     102.883
  C      634.906    1275.401     101.806
  O      634.890    1275.146     100.615
  N      633.983    1273.261     102.839
  C      633.772    1272.938     104.095
  N      634.152    1273.949     104.956
  O      633.938    1267.163     107.352
  O      631.634    1268.132     107.096
  H      632.440    1275.799     108.428
  H      631.571    1267.524     107.858
  H      635.616    1277.302     101.581
  H      633.350    1271.993     104.457
  H      635.040    1274.337     106.781
  H      632.268    1275.056     106.291
  H      635.939    1278.947     103.214
  H      631.480    1272.953     106.651
  H      635.645    1278.562     104.885
  H      633.568    1272.233     108.748
  H      631.777    1270.547     108.208
  H      632.027    1270.808     106.481
  P      629.961    1272.645     109.045
  C      631.269    1272.094     111.200
  O      630.584    1271.581     110.061
  O      629.576    1271.744     107.772
  O      628.752    1273.353     109.579
  H      628.714    1271.321     107.913
  H      631.905    1271.306     111.642
  H      630.508    1272.397     111.943
  H      631.887    1272.968     110.932
  H      634.239    1268.687     103.438
  H      634.992    1267.616     104.595
  H      635.107    1269.347     104.803

 3  4  5  6  7  8  9  10  11  12  23  26  30  31 0
 6-311+G(2d,p)
 ****
 33  35  36  37  38 0
 6-311+G(2d,p)
 ****
 1  2  13  14  15  16  17  18  19  20  21  22  24  25 0
 3-21G
 ****
 27  28  29  32  34  39  40  41  42  43  44  45  46  47  48  49 0
 3-21G
 ****


