%nproc=1
%NoSave
%Mem=1900MB
#P OB98/GEN NMR

erre ene a

0 1
  C      737.611    -352.833     199.678
  O      738.436    -353.962     199.493
  P      738.555    -354.689     198.063
  C      741.041    -354.034     198.187
  O      740.107    -355.070     197.926
  C      742.456    -354.581     198.205
  O      742.574    -355.535     199.283
  C      742.885    -355.348     196.951
  O      743.370    -354.516     195.884
  C      744.041    -356.179     197.495
  O      745.221    -355.355     197.607
  C      743.521    -356.560     198.881
  N      744.214    -361.584     198.154
  C      745.061    -360.528     198.095
  N      744.804    -359.222     198.291
  C      743.507    -359.036     198.592
  C      742.521    -360.021     198.712
  C      742.909    -361.329     198.467
  N      742.048    -362.403     198.553
  N      741.310    -359.429     199.043
  C      741.569    -358.150     199.143
  N      742.886    -357.854     198.901
  O      737.971    -353.914     196.934
  O      737.844    -356.098     198.284
  H      744.994    -354.623     198.211
  H      737.631    -356.507     197.421
  H      746.098    -360.765     197.863
  H      740.839    -357.391     199.385
  H      744.320    -356.565     199.639
  H      744.293    -357.023     196.848
  H      742.091    -356.019     196.588
  H      743.152    -353.751     198.403
  H      740.812    -353.604     199.171
  H      742.448    -363.340     198.490
  H      741.133    -362.247     198.940
  H      740.928    -353.249     197.437
  P      742.866    -354.871     194.400
  C      741.334    -352.804     193.882
  O      742.573    -353.455     193.699
  O      741.748    -355.846     194.338
  O      744.209    -355.366     193.685
  H      744.898    -354.687     193.551
  H      741.402    -351.799     193.473
  H      741.082    -352.723     194.941
  H      740.543    -353.349     193.352
  H      737.676    -352.507     200.695
  H      736.598    -353.090     199.450
  H      737.934    -352.045     199.030

 3  4  5  6  7  8  9  10  11  12  22  25  29  30  31  32 0
 6-311+G(2d,p)
 ****
 33  36  37 0
 6-311+G(2d,p)
 ****
 1  2  13  14  15  16  17  18  19  20  21  23  24  26 0
 3-21G
 ****
 27  28  34  35  38  39  40  41  42  43  44  45  46  47  48 0
 3-21G
 ****


