%nproc=1
%NoSave
%Mem=1900MB
#P OB98/GEN NMR

erre ene a

0 1
  C     -163.824    -151.167    -210.755
  O     -164.658    -150.126    -211.214
  H     -163.996    -151.307    -209.684
  H     -162.776    -150.895    -210.911
  H     -164.038    -152.107    -211.271
  P     -164.942    -150.002    -212.783
  C     -162.987    -148.367    -213.192
  O     -163.554    -149.632    -213.504
  C     -163.166    -147.361    -214.330
  O     -162.653    -146.067    -213.940
  C     -162.392    -147.762    -215.586
  O     -163.050    -148.682    -216.438
  C     -162.201    -146.416    -216.280
  O     -163.344    -146.087    -217.083
  C     -162.075    -145.445    -215.102
  N     -158.565    -141.727    -215.042
  C     -159.877    -141.680    -215.477
  N     -160.285    -140.508    -216.016
  N     -160.698    -142.693    -215.403
  C     -160.124    -143.824    -214.928
  C     -158.831    -143.999    -214.480
  C     -157.946    -142.853    -214.517
  O     -156.773    -142.845    -214.151
  N     -158.612    -145.292    -214.067
  C     -159.744    -145.914    -214.336
  N     -160.700    -145.059    -214.836
  O     -165.771    -148.633    -212.910
  O     -165.696    -151.145    -213.391
  H     -163.414    -146.742    -217.802
  H     -166.336    -148.659    -213.702
  H     -157.986    -140.907    -215.099
  H     -159.929    -146.968    -214.165
  H     -162.639    -144.519    -215.280
  H     -161.336    -146.423    -216.947
  H     -159.656    -139.741    -216.201
  H     -161.403    -148.154    -215.316
  H     -161.137    -140.515    -216.581
  H     -164.236    -147.237    -214.535
  H     -161.922    -148.536    -213.007
  H     -163.418    -147.976    -212.264
  P     -162.207    -149.793    -217.224
  C     -161.969    -148.319    -219.356
  O     -161.325    -149.025    -218.319
  O     -163.327    -150.540    -218.091
  O     -161.453    -150.742    -216.354
  H     -163.626    -151.351    -217.634
  H     -161.235    -147.870    -219.992
  H     -162.591    -147.557    -218.936
  H     -162.570    -148.995    -219.928

 6  7  8  9  10  11  12  13  14  15  26  29  33  34 0
 6-311+G(2d,p)
 ****
 36  38  39  40  41 0
 6-311+G(2d,p)
 ****
 1  2  3  4  5  16  17  18  19  20  21  22  23  24  25 0
 3-21G
 ****
 27  28  30  31  32  35  37  42  43  44  45  46  47 0
 3-21G
 ****
 48  49 0
 3-21G
 ****


