%nproc=1
%NoSave
%Mem=1900MB
#P OB98/GEN NMR

erre ene a

0 1
  C      539.090     257.413      49.418
  O      540.367     257.862      49.004
  P      540.449     258.757      47.677
  C      541.907     260.498      48.942
  O      541.768     259.655      47.800
  C      543.368     260.569      49.403
  O      543.764     259.278      49.928
  C      544.356     260.944      48.307
  O      545.365     261.787      48.885
  C      544.979     259.618      47.909
  O      546.268     259.790      47.328
  C      544.971     258.880      49.257
  N      545.040     257.430      49.094
  C      546.289     256.872      48.794
  O      547.260     257.619      48.604
  N      546.401     255.515      48.660
  C      545.343     254.771      48.714
  N      545.497     253.427      48.575
  C      543.976     255.324      48.901
  C      543.905     256.641      49.100
  O      539.257     259.822      47.884
  O      540.292     257.996      46.395
  H      546.906     260.025      48.044
  H      538.857     260.076      47.030
  H      543.118     254.660      48.890
  H      542.941     257.134      49.273
  H      545.820     259.184      49.878
  H      544.334     259.106      47.171
  H      543.886     261.476      47.463
  H      543.426     261.285      50.237
  H      546.439     253.075      48.436
  H      541.309     260.081      49.760
  H      544.726     252.774      48.600
  H      541.527     261.490      48.701
  P      545.798     263.118      48.100
  C      546.218     264.208      50.389
  O      546.751     263.905      49.111
  O      544.432     263.972      48.199
  O      546.234     262.991      46.679
  H      544.541     264.812      47.698
  H      547.017     264.625      51.012
  H      545.817     263.310      50.858
  H      545.406     264.961      50.298
  H      539.189     256.832      50.311
  H      538.656     256.811      48.647
  H      538.460     258.257      49.609

 3  4  5  6  7  8  9  10  11  12  13  21  23  27  28  29  30  32 0
 6-311+G(2d,p)
 ****
 34  35 0
 6-311+G(2d,p)
 ****
 1  2  14  15  16  17  18  19  20  22  24  25  26 0
 3-21G
 ****
 31  33  36  37  38  39  40  41  42  43  44  45  46 0
 3-21G
 ****


