%nproc=1
%NoSave
%Mem=1900MB
#P OB98/GEN NMR

erre ene a

0 1
  C      111.710    -107.647    -804.013
  O      112.325    -106.410    -803.686
  P      111.359    -105.163    -803.387
  C      111.171    -105.862    -800.884
  O      110.492    -105.549    -802.093
  C      110.268    -105.572    -799.684
  O      110.122    -104.149    -799.505
  C      108.851    -106.115    -799.813
  O      108.818    -107.517    -799.595
  C      108.141    -105.291    -798.747
  O      108.405    -105.832    -797.442
  C      108.824    -103.917    -798.897
  N      105.596     -99.942    -798.897
  C      106.145    -100.656    -797.892
  N      106.978    -101.714    -797.970
  C      107.240    -102.015    -799.251
  C      106.735    -101.392    -800.381
  C      105.879    -100.304    -800.169
  N      105.314     -99.581    -801.200
  N      107.213    -101.999    -801.526
  C      107.999    -102.962    -801.096
  N      108.062    -103.002    -799.730
  O      110.298    -105.232    -804.577
  O      112.050    -103.836    -803.323
  H      109.361    -105.741    -797.278
  H      110.011    -104.337    -804.843
  H      105.882    -100.337    -796.885
  H      108.546    -103.644    -801.733
  H      108.997    -103.422    -797.935
  H      107.053    -105.265    -798.878
  H      108.444    -105.883    -800.804
  H      110.756    -105.981    -798.791
  H      112.075    -105.251    -800.802
  H      104.596     -98.914    -800.962
  H      105.411     -99.941    -802.141
  H      111.467    -106.914    -800.906
  P      107.626    -108.342    -800.291
  C      109.111    -108.386    -802.390
  O      107.836    -108.058    -801.859
  O      106.359    -107.434    -799.942
  O      107.542    -109.776    -799.889
  H      106.519    -106.496    -800.136
  H      109.103    -108.200    -803.467
  H      109.336    -109.443    -802.215
  H      109.879    -107.760    -801.928
  H      112.465    -108.386    -804.187
  H      111.117    -107.528    -804.896
  H      111.085    -107.960    -803.203

 3  4  5  6  7  8  9  10  11  12  22  25  29  30  31  32 0
 6-311+G(2d,p)
 ****
 33  36  37 0
 6-311+G(2d,p)
 ****
 1  2  13  14  15  16  17  18  19  20  21  23  24  26 0
 3-21G
 ****
 27  28  34  35  38  39  40  41  42  43  44  45  46  47  48 0
 3-21G
 ****


