%nproc=1
%NoSave
%Mem=1900MB
#P OB98/GEN NMR

erre ene a

0 1
  C      656.629    -342.973     230.159
  O      655.232    -343.211     230.161
  H      657.123    -343.637     229.444
  H      656.806    -341.934     229.865
  H      657.032    -343.129     231.164
  P      654.749    -344.696     230.534
  C      654.098    -345.442     228.135
  O      654.990    -345.610     229.229
  C      654.176    -346.668     227.209
  O      655.489    -346.693     226.595
  C      653.937    -348.008     227.912
  O      652.843    -348.701     227.299
  C      655.211    -348.802     227.634
  O      654.967    -350.186     227.340
  C      655.836    -348.069     226.448
  N      659.812    -349.399     223.537
  C      658.572    -348.948     223.214
  N      657.601    -348.511     224.031
  C      658.010    -348.544     225.311
  C      659.241    -348.961     225.787
  C      660.154    -349.417     224.836
  N      661.399    -349.922     225.171
  N      659.289    -348.851     227.172
  C      658.093    -348.431     227.525
  N      657.271    -348.251     226.430
  O      653.148    -344.565     230.601
  O      655.311    -345.248     231.800
  H      654.564    -350.573     228.139
  H      652.821    -344.982     231.418
  H      658.340    -348.946     222.142
  H      657.749    -348.284     228.540
  H      655.437    -348.420     225.482
  H      655.857    -348.758     228.516
  H      653.767    -347.907     228.986
  H      653.451    -346.522     226.398
  H      654.373    -344.549     227.564
  H      661.947    -350.344     224.436
  H      661.625    -350.045     226.148
  H      653.087    -345.313     228.524
  P      651.368    -348.294     227.799
  C      650.914    -350.487     229.137
  O      651.094    -349.076     229.183
  O      650.403    -349.033     226.757
  O      651.123    -346.822     227.836
  H      649.561    -348.567     226.675
  H      650.743    -350.857     230.126
  H      651.792    -350.945     228.731
  H      650.072    -350.719     228.519

 6  7  8  9  10  11  12  13  14  15  25  28  32  33  34  35 0
 6-311+G(2d,p)
 ****
 36  39  40 0
 6-311+G(2d,p)
 ****
 1  2  3  4  5  16  17  18  19  20  21  22  23  24 0
 3-21G
 ****
 26  27  29  30  31  37  38  41  42  43  44  45  46  47  48 0
 3-21G
 ****


