%nproc=1
%NoSave
%Mem=1900MB
#P OB98/GEN NMR

erre ene a

0 1
  C     -486.819    -864.727      76.194
  O     -487.606    -865.463      77.138
  P     -488.393    -866.806      76.774
  C     -487.095    -868.275      78.476
  O     -487.434    -868.056      77.120
  C     -486.174    -869.497      78.631
  O     -484.890    -869.220      78.017
  C     -485.824    -869.866      80.060
  O     -486.914    -870.485      80.733
  C     -484.617    -870.787      79.839
  O     -485.026    -872.123      79.547
  C     -483.947    -870.152      78.605
  N     -482.694    -869.488      78.907
  C     -481.582    -870.330      79.078
  O     -481.696    -871.548      79.052
  N     -480.347    -869.740      79.299
  C     -480.260    -868.452      79.430
  N     -479.020    -867.935      79.639
  C     -481.428    -867.560      79.401
  C     -482.597    -868.138      79.134
  O     -488.942    -866.842      75.392
  O     -489.565    -866.929      77.874
  H     -490.304    -867.450      77.504
  H     -485.409    -872.492      80.365
  H     -481.315    -866.497      79.579
  H     -483.517    -867.551      79.080
  H     -483.781    -870.912      77.835
  H     -483.978    -870.823      80.726
  H     -485.508    -868.960      80.610
  H     -486.642    -870.345      78.111
  H     -478.232    -868.567      79.645
  H     -488.021    -868.465      79.035
  H     -478.837    -866.952      79.744
  H     -486.629    -867.377      78.891
  P     -487.823    -869.545      81.650
  C     -489.910    -869.422      80.105
  O     -488.818    -868.736      80.683
  O     -486.805    -868.436      82.182
  O     -488.490    -870.252      82.791
  H     -487.021    -868.223      83.116
  H     -490.715    -868.704      79.914
  H     -490.300    -870.208      80.751
  H     -489.594    -869.866      79.147
  H     -486.394    -863.870      76.675
  H     -487.440    -864.409      75.383
  H     -486.035    -865.351      75.820

 3  4  5  6  7  8  9  10  11  12  13  24  27  28  29  30  32 0
 6-311+G(2d,p)
 ****
 34  35 0
 6-311+G(2d,p)
 ****
 1  2  14  15  16  17  18  19  20  21  22  23  25  26 0
 3-21G
 ****
 31  33  36  37  38  39  40  41  42  43  44  45  46 0
 3-21G
 ****


