%nproc=1
%NoSave
%Mem=1900MB
#P OB98/GEN NMR

erre ene a

0 1
  C      294.263    -421.868      30.557
  O      295.626    -421.836      30.164
  P      295.930    -421.586      28.603
  C      296.816    -419.122      28.633
  O      297.118    -420.511      28.544
  C      297.881    -418.420      29.470
  O      297.430    -418.264      30.831
  C      299.210    -419.161      29.543
  O      299.988    -418.900      28.386
  C      299.812    -418.589      30.827
  O      300.412    -417.305      30.582
  C      298.570    -418.450      31.725
  N      297.585    -419.860      36.481
  C      297.934    -418.623      35.972
  N      297.982    -417.600      36.863
  N      298.207    -418.400      34.716
  C      298.135    -419.515      33.947
  C      297.815    -420.794      34.337
  C      297.472    -421.017      35.723
  O      297.057    -422.073      36.199
  N      297.871    -421.670      33.276
  C      298.182    -420.905      32.252
  N      298.334    -419.590      32.599
  O      294.642    -420.775      28.109
  O      296.174    -422.827      27.801
  H      301.207    -417.412      30.022
  H      294.005    -421.373      27.667
  H      297.373    -419.964      37.459
  H      298.292    -421.253      31.226
  H      298.622    -417.558      32.366
  H      300.590    -419.231      31.241
  H      297.806    -417.704      37.852
  H      299.044    -420.238      29.662
  H      298.236    -416.683      36.509
  H      298.025    -417.408      29.052
  H      295.840    -418.999      29.110
  H      296.772    -418.703      27.622
  P      301.285    -419.817      28.148
  C      301.216    -419.709      25.545
  O      301.912    -419.385      26.739
  O      300.665    -421.271      27.859
  O      302.241    -419.852      29.295
  H      301.242    -421.956      28.243
  H      301.445    -418.954      24.789
  H      300.134    -419.744      25.712
  H      301.555    -420.688      25.193
  H      294.200    -422.040      31.611
  H      293.760    -422.656      30.036
  H      293.801    -420.932      30.320

 3  4  5  6  7  8  9  10  11  12  23  26  30  31 0
 6-311+G(2d,p)
 ****
 33  35  36  37  38 0
 6-311+G(2d,p)
 ****
 1  2  13  14  15  16  17  18  19  20  21  22  24  25 0
 3-21G
 ****
 27  28  29  32  34  39  40  41  42  43  44  45  46  47  48  49 0
 3-21G
 ****


