%nproc=1
%NoSave
%Mem=1900MB
#P OB98/GEN NMR

erre ene a

0 1
  C       -5.245     171.623    -121.111
  O       -4.335     172.399    -120.357
  H       -5.877     172.272    -121.721
  H       -4.681     170.959    -121.771
  H       -5.865     171.017    -120.446
  P       -4.963     173.474    -119.346
  C       -6.147     175.768    -119.597
  O       -5.348     174.770    -120.218
  C       -5.937     177.110    -120.294
  O       -4.640     177.631    -119.902
  C       -5.982     177.049    -121.831
  O       -6.997     177.923    -122.334
  C       -4.626     177.581    -122.272
  O       -4.701     178.434    -123.413
  C       -4.124     178.330    -121.041
  N        0.010     180.091    -123.448
  C       -1.275     180.501    -123.467
  N       -2.310     180.060    -122.723
  C       -1.903     179.105    -121.865
  C       -0.624     178.599    -121.713
  C        0.361     179.122    -122.570
  N        1.660     178.665    -122.588
  N       -0.596     177.621    -120.736
  C       -1.847     177.507    -120.338
  N       -2.675     178.370    -121.006
  O       -3.697     173.960    -118.493
  O       -6.054     172.957    -118.469
  H       -5.019     177.884    -124.154
  H       -3.917     173.945    -117.542
  H       -1.509     181.285    -124.182
  H       -2.213     176.793    -119.611
  H       -4.496     179.361    -121.004
  H       -3.973     176.733    -122.517
  H       -6.147     176.033    -122.209
  H       -6.693     177.813    -119.921
  H       -5.860     175.865    -118.544
  H        2.271     179.012    -123.314
  H        1.902     177.868    -122.015
  H       -7.198     175.464    -119.645
  P       -7.989     177.314    -123.446
  C       -8.366     177.668    -125.999
  O       -7.551     177.927    -124.864
  O       -9.372     178.057    -123.136
  O       -8.123     175.830    -123.391
  H      -10.122     177.504    -123.430
  H       -7.941     178.142    -126.859
  H       -9.349     178.054    -125.828
  H       -8.422     176.612    -126.165

 6  7  8  9  10  11  12  13  14  15  25  28  32  33  34  35 0
 6-311+G(2d,p)
 ****
 36  39  40 0
 6-311+G(2d,p)
 ****
 1  2  3  4  5  16  17  18  19  20  21  22  23  24 0
 3-21G
 ****
 26  27  29  30  31  37  38  41  42  43  44  45  46  47  48 0
 3-21G
 ****


