%nproc=1
%NoSave
%Mem=1900MB
#P OB98/GEN NMR

erre ene a

0 1
  C      -74.057    -117.642    -178.905
  O      -74.668    -116.603    -179.654
  P      -73.747    -115.387    -180.151
  C      -75.213    -113.509    -179.114
  O      -73.949    -114.161    -179.130
  C      -75.216    -112.353    -178.110
  O      -75.079    -112.883    -176.762
  C      -74.073    -111.352    -178.320
  O      -74.527    -110.037    -177.966
  C      -73.040    -111.769    -177.293
  O      -72.170    -110.690    -176.957
  C      -73.947    -112.230    -176.150
  N      -73.020    -113.217    -171.277
  C      -73.970    -112.386    -171.839
  N      -74.717    -111.660    -170.979
  N      -74.177    -112.286    -173.127
  C      -73.350    -113.072    -173.862
  C      -72.382    -113.944    -173.421
  C      -72.157    -114.035    -171.995
  O      -71.312    -114.730    -171.432
  N      -71.772    -114.594    -174.465
  C      -72.341    -114.082    -175.544
  N      -73.279    -113.130    -175.232
  O      -74.491    -114.897    -181.481
  O      -72.327    -115.754    -180.436
  H      -72.732    -109.970    -176.607
  H      -73.989    -115.189    -182.268
  H      -72.892    -113.252    -170.277
  H      -72.094    -114.347    -176.566
  H      -74.327    -111.380    -175.571
  H      -72.433    -112.593    -177.680
  H      -74.564    -111.640    -169.981
  H      -73.669    -111.335    -179.340
  H      -75.391    -111.009    -171.369
  H      -76.189    -111.849    -178.161
  H      -75.982    -114.230    -178.833
  H      -75.446    -113.136    -180.117
  P      -73.782    -108.814    -178.700
  C      -72.221    -108.232    -176.697
  O      -72.332    -108.713    -178.021
  O      -74.554    -107.527    -178.141
  O      -73.801    -108.895    -180.192
  H      -74.485    -106.792    -178.784
  H      -71.821    -109.029    -176.061
  H      -73.184    -107.906    -176.291
  H      -71.531    -107.386    -176.685
  H      -74.792    -118.375    -178.647
  H      -73.631    -117.235    -178.012
  H      -73.287    -118.099    -179.491

 3  4  5  6  7  8  9  10  11  12  23  26  30  31 0
 6-311+G(2d,p)
 ****
 33  35  36  37  38 0
 6-311+G(2d,p)
 ****
 1  2  13  14  15  16  17  18  19  20  21  22  24  25 0
 3-21G
 ****
 27  28  29  32  34  39  40  41  42  43  44  45  46  47  48  49 0
 3-21G
 ****


