%nproc=1
%NoSave
%Mem=1900MB
#P OB98/GEN NMR

erre ene a

0 1
  C     -348.826     172.717     328.533
  O     -347.931     173.399     329.395
  P     -347.699     172.897     330.899
  C     -348.888     174.892     331.997
  O     -348.910     173.487     331.770
  C     -348.826     175.197     333.495
  O     -348.597     176.614     333.677
  C     -350.111     174.841     334.239
  O     -349.774     174.357     335.539
  C     -350.831     176.173     334.397
  O     -351.704     176.160     335.535
  C     -349.649     177.144     334.498
  N     -348.500     182.146     334.732
  C     -347.930     181.067     335.315
  N     -348.303     179.771     335.228
  C     -349.350     179.635     334.400
  C     -350.037     180.643     333.736
  C     -349.574     181.956     333.929
  N     -350.148     183.057     333.328
  N     -351.085     180.119     332.997
  C     -351.019     178.824     333.200
  N     -349.984     178.479     334.031
  O     -346.344     173.168     331.455
  O     -348.019     171.330     330.850
  H     -351.175     175.854     336.303
  H     -347.404     170.841     331.428
  H     -347.061     181.268     335.935
  H     -351.694     178.090     332.780
  H     -349.277     177.219     335.528
  H     -351.440     176.371     333.504
  H     -350.722     174.103     333.709
  H     -347.970     174.664     333.924
  H     -349.806     175.323     331.583
  H     -349.670     183.938     333.428
  H     -350.828     182.898     332.594
  H     -348.032     175.337     331.479
  P     -349.927     172.769     335.766
  C     -352.511     173.082     335.892
  O     -351.416     172.431     335.283
  O     -349.548     172.362     337.151
  O     -348.970     172.203     334.612
  H     -348.876     172.847     333.876
  H     -353.438     172.693     335.456
  H     -352.462     174.160     335.701
  H     -352.517     172.897     336.965
  H     -348.842     173.202     327.579
  H     -349.809     172.730     328.956
  H     -348.503     171.704     328.413

 3  4  5  6  7  8  9  10  11  12  22  25  29  30  31  32 0
 6-311+G(2d,p)
 ****
 33  36  37 0
 6-311+G(2d,p)
 ****
 1  2  13  14  15  16  17  18  19  20  21  23  24  26 0
 3-21G
 ****
 27  28  34  35  38  39  40  41  42  43  44  45  46  47  48 0
 3-21G
 ****


