%nproc=1
%NoSave
%Mem=1900MB
#P OB98/GEN NMR

erre ene a

0 1
  C     -233.430    -233.026    -443.382
  O     -234.625    -233.647    -443.885
  P     -234.480    -235.190    -444.347
  C     -234.283    -234.639    -446.888
  O     -233.669    -235.211    -445.737
  C     -233.490    -234.983    -448.151
  O     -232.260    -234.246    -448.254
  C     -233.102    -236.459    -448.229
  O     -234.209    -237.222    -448.671
  C     -231.965    -236.422    -449.241
  O     -232.462    -236.427    -450.597
  C     -231.287    -235.071    -448.940
  N     -226.632    -237.094    -448.591
  C     -227.653    -237.358    -449.481
  N     -227.379    -238.258    -450.452
  N     -228.828    -236.775    -449.462
  C     -228.960    -235.891    -448.439
  C     -228.014    -235.528    -447.490
  C     -226.723    -236.184    -447.542
  O     -225.786    -235.967    -446.785
  N     -228.497    -234.547    -446.658
  C     -229.756    -234.408    -447.024
  N     -230.074    -235.155    -448.134
  O     -235.972    -235.593    -444.767
  O     -233.936    -236.083    -443.278
  H     -232.999    -235.621    -450.748
  H     -236.336    -236.222    -444.115
  H     -225.758    -237.578    -448.648
  H     -230.485    -233.775    -446.525
  H     -230.999    -234.546    -449.861
  H     -231.306    -237.288    -449.154
  H     -226.497    -238.744    -450.548
  H     -232.727    -236.806    -447.258
  H     -228.110    -238.457    -451.145
  H     -234.121    -234.715    -449.025
  H     -234.342    -233.549    -446.767
  H     -235.314    -234.991    -446.952
  P     -234.892    -238.234    -447.623
  C     -233.876    -240.268    -448.867
  O     -234.035    -239.589    -447.636
  O     -236.274    -238.623    -448.346
  O     -235.127    -237.636    -446.272
  H     -236.990    -238.600    -447.692
  H     -232.914    -240.812    -448.835
  H     -233.876    -239.587    -449.714
  H     -234.687    -241.004    -448.985
  H     -233.642    -232.014    -443.108
  H     -232.675    -233.040    -444.140
  H     -233.084    -233.562    -442.523

 3  4  5  6  7  8  9  10  11  12  23  26  30  31 0
 6-311+G(2d,p)
 ****
 33  35  36  37  38 0
 6-311+G(2d,p)
 ****
 1  2  13  14  15  16  17  18  19  20  21  22  24  25 0
 3-21G
 ****
 27  28  29  32  34  39  40  41  42  43  44  45  46  47  48  49 0
 3-21G
 ****


