%nproc=1
%NoSave
%Mem=1900MB
#P OB98/GEN NMR

erre ene a

0 1
  C     -386.804      20.049    -308.209
  O     -387.162      19.629    -309.518
  P     -386.713      20.555    -310.749
  C     -387.671      22.655    -311.952
  O     -387.822      21.708    -310.900
  C     -388.733      23.754    -311.852
  O     -388.692      24.324    -310.515
  C     -388.549      24.909    -312.853
  O     -389.861      25.352    -313.222
  C     -387.834      25.949    -312.005
  O     -387.869      27.262    -312.551
  C     -388.547      25.759    -310.674
  N     -387.182      30.111    -308.355
  C     -387.977      29.871    -309.418
  N     -388.302      28.681    -309.976
  C     -387.718      27.670    -309.311
  C     -386.864      27.763    -308.223
  C     -386.599      29.054    -307.737
  N     -385.773      29.293    -306.654
  N     -386.435      26.509    -307.827
  C     -387.020      25.673    -308.662
  N     -387.823      26.324    -309.562
  O     -386.983      19.620    -312.019
  O     -385.298      21.039    -310.696
  H     -388.790      27.595    -312.551
  H     -386.285      19.733    -312.693
  H     -388.419      30.746    -309.887
  H     -386.884      24.597    -308.667
  H     -389.553      26.202    -310.682
  H     -386.774      25.672    -311.923
  H     -388.004      24.619    -313.762
  H     -389.718      23.292    -311.983
  H     -387.790      22.144    -312.918
  H     -385.492      30.258    -306.515
  H     -385.188      28.530    -306.339
  H     -386.659      23.076    -311.920
  P     -390.247      25.444    -314.779
  C     -389.076      26.546    -316.779
  O     -389.209      26.519    -315.367
  O     -391.602      26.301    -314.704
  O     -390.370      24.134    -315.491
  H     -391.478      27.107    -314.176
  H     -388.419      27.379    -317.048
  H     -390.055      26.696    -317.245
  H     -388.625      25.620    -317.129
  H     -387.167      19.340    -307.495
  H     -387.237      21.007    -308.011
  H     -385.739      20.116    -308.135

 3  4  5  6  7  8  9  10  11  12  22  25  29  30  31  32 0
 6-311+G(2d,p)
 ****
 33  36  37 0
 6-311+G(2d,p)
 ****
 1  2  13  14  15  16  17  18  19  20  21  23  24  26 0
 3-21G
 ****
 27  28  34  35  38  39  40  41  42  43  44  45  46  47  48 0
 3-21G
 ****


