%nproc=1
%NoSave
%Mem=1900MB
#P OB98/GEN NMR

erre ene a

0 1
  C     -656.871    1283.084     608.983
  O     -656.783    1282.236     607.848
  H     -656.696    1282.478     609.880
  H     -657.868    1283.521     609.043
  H     -656.109    1283.865     608.932
  P     -656.840    1282.951     606.413
  C     -659.371    1282.352     606.030
  O     -658.023    1282.219     605.608
  C     -660.315    1282.309     604.827
  O     -660.196    1283.558     604.094
  C     -660.013    1281.168     603.848
  O     -661.250    1280.688     603.307
  C     -659.219    1281.851     602.742
  O     -659.281    1281.136     601.515
  C     -659.876    1283.247     602.728
  N     -659.008    1284.262     602.129
  C     -659.436    1284.827     600.921
  O     -660.487    1284.463     600.398
  N     -658.643    1285.766     600.317
  C     -657.487    1286.062     600.821
  N     -656.740    1286.989     600.161
  C     -656.972    1285.457     602.074
  C     -657.781    1284.584     602.667
  O     -655.504    1282.398     605.723
  O     -656.932    1284.441     606.464
  H     -660.217    1281.049     601.251
  H     -655.369    1281.442     605.844
  H     -656.003    1285.730     602.451
  H     -657.491    1284.099     603.594
  H     -660.807    1283.227     602.153
  H     -658.161    1281.933     603.033
  H     -659.470    1280.339     604.307
  H     -661.342    1282.257     605.193
  H     -657.117    1287.357     599.292
  H     -659.507    1283.296     606.565
  H     -655.797    1287.245     600.429
  H     -659.586    1281.534     606.716
  P     -662.213    1279.801     604.228
  C     -660.761    1277.693     603.809
  O     -662.070    1278.264     603.797
  O     -663.623    1280.292     604.373
  O     -661.481    1279.827     605.653
  H     -662.160    1279.928     606.341
  H     -660.815    1276.670     603.502
  H     -660.357    1277.747     604.798
  H     -660.129    1278.234     603.136

 6  7  8  9  10  11  12  13  14  15  16  26  30  31  32  33  35 0
 6-311+G(2d,p)
 ****
 37  38 0
 6-311+G(2d,p)
 ****
 1  2  3  4  5  17  18  19  20  21  22  23  24  25 0
 3-21G
 ****
 27  28  29  34  36  39  40  41  42  43  44  45  46 0
 3-21G
 ****


