%nproc=1
%NoSave
%Mem=1900MB
#P OB98/GEN NMR

erre ene a

0 1
  C      -38.440      39.279    -157.374
  O      -38.753      39.769    -158.681
  P      -40.128      39.257    -159.331
  C      -41.101      37.001    -160.172
  O      -39.964      37.702    -159.687
  C      -40.661      35.839    -161.065
  O      -40.194      36.299    -162.350
  C      -39.506      35.032    -160.484
  O      -39.949      34.194    -159.430
  C      -39.021      34.290    -161.726
  O      -39.865      33.159    -162.000
  C      -39.206      35.350    -162.825
  N      -36.168      36.907    -166.641
  C      -37.329      36.211    -166.634
  N      -38.077      35.837    -165.574
  C      -37.519      36.256    -164.425
  C      -36.344      36.975    -164.276
  C      -35.649      37.300    -165.453
  N      -34.458      37.992    -165.457
  N      -36.091      37.221    -162.941
  C      -37.085      36.643    -162.297
  N      -37.981      36.057    -163.152
  O      -40.148      39.975    -160.762
  O      -41.338      39.598    -158.523
  H      -40.783      33.489    -162.071
  H      -40.824      40.680    -160.771
  H      -37.711      35.922    -167.610
  H      -37.200      36.621    -161.219
  H      -39.587      34.917    -163.758
  H      -37.996      33.919    -161.630
  H      -38.721      35.706    -160.118
  H      -41.528      35.181    -161.223
  H      -41.751      37.674    -160.737
  H      -33.986      38.118    -166.339
  H      -34.018      38.215    -164.577
  H      -41.687      36.644    -159.318
  P      -39.179      34.288    -158.027
  C      -36.788      33.686    -157.307
  O      -37.776      33.557    -158.314
  O      -39.965      33.203    -157.155
  O      -39.091      35.658    -157.446
  H      -40.108      32.375    -157.651
  H      -35.904      33.118    -157.613
  H      -37.159      33.284    -156.360
  H      -36.509      34.735    -157.187
  H      -37.506      39.690    -157.053
  H      -38.370      38.212    -157.401
  H      -39.211      39.569    -156.690

 3  4  5  6  7  8  9  10  11  12  22  25  29  30  31  32 0
 6-311+G(2d,p)
 ****
 33  36  37 0
 6-311+G(2d,p)
 ****
 1  2  13  14  15  16  17  18  19  20  21  23  24  26 0
 3-21G
 ****
 27  28  34  35  38  39  40  41  42  43  44  45  46  47  48 0
 3-21G
 ****


