%nproc=1
%NoSave
%Mem=1900MB
#P OB98/GEN NMR

erre ene a

0 1
  C      211.166      64.036      55.540
  O      210.618      65.145      56.225
  P      211.248      65.560      57.641
  C      209.147      65.313      59.205
  O      210.049      66.169      58.518
  C      208.318      66.117      60.213
  O      209.146      66.408      61.377
  C      207.779      67.445      59.680
  O      206.494      67.660      60.280
  C      208.785      68.457      60.212
  O      208.260      69.777      60.275
  C      209.112      67.837      61.575
  N      210.379      68.308      62.141
  C      210.476      69.652      62.500
  O      209.569      70.472      62.344
  N      211.686      70.042      63.024
  C      212.797      69.259      63.151
  O      213.858      69.664      63.608
  C      212.640      67.861      62.712
  C      211.468      67.456      62.246
  O      212.115      66.842      57.229
  O      212.018      64.466      58.304
  H      211.698      67.380      56.534
  H      208.073      70.074      59.362
  H      211.769      71.001      63.321
  H      213.514      67.210      62.786
  H      211.330      66.435      61.909
  H      208.298      68.041      62.285
  H      209.669      68.469      59.561
  H      207.688      67.458      58.586
  H      207.491      65.478      60.557
  H      209.718      64.544      59.738
  H      208.503      64.807      58.475
  P      205.213      67.786      59.300
  C      204.139      70.110      59.871
  O      204.133      68.704      60.051
  O      204.594      66.318      59.461
  O      205.533      68.134      57.883
  H      204.518      66.026      60.380
  H      203.158      70.499      60.174
  H      204.318      70.382      58.831
  H      204.903      70.556      60.509
  H      210.640      63.890      54.620
  H      211.072      63.160      56.147
  H      212.200      64.219      55.335

 3  4  5  6  7  8  9  10  11  12  13  24  28  29  30  31  32 0
 6-311+G(2d,p)
 ****
 33  34 0
 6-311+G(2d,p)
 ****
 1  2  14  15  16  17  18  19  20  21  22  23  25  26  27 0
 3-21G
 ****
 35  36  37  38  39  40  41  42  43  44  45 0
 3-21G
 ****


