%nproc=1
%NoSave
%Mem=1900MB
#P OB98/GEN NMR

erre ene a

0 1
  C      -47.483     155.219    -481.003
  O      -47.711     153.918    -481.543
  P      -47.607     152.644    -480.575
  C      -45.140     152.214    -481.154
  O      -46.080     152.467    -480.111
  C      -43.736     151.901    -480.601
  O      -43.723     150.620    -479.908
  C      -42.643     151.840    -481.678
  O      -41.441     152.361    -481.091
  C      -42.504     150.345    -481.927
  O      -41.286     150.008    -482.567
  C      -42.683     149.817    -480.500
  N      -43.012     148.398    -480.469
  C      -41.971     147.505    -480.225
  O      -40.808     147.924    -480.147
  N      -42.263     146.174    -480.099
  C      -43.466     145.751    -480.350
  N      -43.722     144.426    -480.203
  C      -44.555     146.646    -480.797
  C      -44.269     147.944    -480.805
  O      -48.261     151.401    -481.078
  O      -48.321     153.162    -479.225
  H      -40.559     150.062    -481.910
  H      -48.796     152.412    -478.813
  H      -45.517     146.246    -481.071
  H      -45.000     148.680    -481.105
  H      -41.774     149.978    -479.906
  H      -43.327     150.005    -482.573
  H      -42.877     152.421    -482.582
  H      -43.476     152.672    -479.870
  H      -42.960     143.817    -479.924
  H      -45.082     153.089    -481.801
  H      -44.643     144.029    -480.328
  H      -45.509     151.396    -481.779
  P      -40.811     153.713    -481.693
  C      -39.336     152.603    -483.523
  O      -40.434     153.446    -483.228
  O      -39.370     153.738    -480.993
  O      -41.549     154.978    -481.391
  H      -39.051     154.662    -480.951
  H      -39.394     152.306    -484.576
  H      -39.345     151.703    -482.905
  H      -38.391     153.143    -483.359
  H      -47.590     155.950    -481.777
  H      -46.493     155.269    -480.600
  H      -48.194     155.413    -480.228

 3  4  5  6  7  8  9  10  11  12  13  23  27  28  29  30  32 0
 6-311+G(2d,p)
 ****
 34  35 0
 6-311+G(2d,p)
 ****
 1  2  14  15  16  17  18  19  20  21  22  24  25  26 0
 3-21G
 ****
 31  33  36  37  38  39  40  41  42  43  44  45  46 0
 3-21G
 ****


