%nproc=1
%NoSave
%Mem=1900MB
#P OB98/GEN NMR

erre ene a

0 1
  C      130.341     -30.883     162.827
  O      129.105     -31.143     163.463
  H      130.689     -29.891     163.126
  H      130.210     -30.896     161.741
  H      131.090     -31.624     163.121
  P      128.521     -32.632     163.355
  C      127.822     -34.174     161.383
  O      128.526     -33.011     161.794
  C      126.730     -33.796     160.381
  O      125.699     -33.043     161.082
  C      127.225     -32.925     159.219
  O      126.508     -33.298     158.037
  C      126.804     -31.526     159.635
  O      126.669     -30.617     158.550
  C      125.480     -31.823     160.345
  N      125.064     -30.740     161.234
  C      124.765     -29.512     160.649
  O      124.741     -29.298     159.439
  N      124.481     -28.495     161.525
  C      124.489     -28.579     162.886
  O      124.245     -27.625     163.617
  C      124.821     -29.896     163.445
  C      125.092     -30.899     162.605
  O      126.967     -32.432     163.684
  O      129.169     -33.641     164.243
  H      126.808     -32.517     164.643
  H      127.415     -30.781     157.938
  H      124.260     -27.600     161.118
  H      124.848     -29.997     164.521
  H      125.361     -31.880     162.985
  H      124.690     -32.022     159.611
  H      127.538     -31.110     160.334
  H      128.302     -32.993     159.033
  H      126.259     -34.715     160.010
  H      127.358     -34.644     162.256
  H      128.525     -34.882     160.932
  P      127.288     -34.181     156.948
  C      128.882     -33.588     154.950
  O      128.095     -33.130     156.043
  O      126.083     -34.665     156.019
  O      128.099     -35.274     157.556
  H      125.381     -33.996     155.925
  H      129.343     -32.752     154.467
  H      128.257     -34.103     154.251
  H      129.639     -34.253     155.310

 6  7  8  9  10  11  12  13  14  15  16  27  31  32  33  34  35 0
 6-311+G(2d,p)
 ****
 36  37 0
 6-311+G(2d,p)
 ****
 1  2  3  4  5  17  18  19  20  21  22  23  24  25 0
 3-21G
 ****
 26  28  29  30  38  39  40  41  42  43  44  45 0
 3-21G
 ****


