%nproc=1
%NoSave
%Mem=1900MB
#P OB98/GEN NMR

erre ene a

0 1
  C       28.636      42.924    -171.731
  O       29.646      43.123    -170.762
  H       27.648      42.976    -171.264
  H       28.709      43.715    -172.485
  H       28.766      41.955    -172.221
  P       29.688      42.083    -169.539
  C       28.467      43.729    -167.934
  O       28.440      42.478    -168.608
  C       27.669      43.620    -166.639
  O       26.269      43.412    -166.934
  C       28.087      42.449    -165.756
  O       29.225      42.741    -164.965
  C       26.846      42.287    -164.897
  O       26.816      43.310    -163.885
  C       25.725      42.519    -165.922
  N       21.666      39.535    -166.844
  C       21.786      40.727    -166.218
  N       22.900      41.466    -166.032
  C       23.966      40.865    -166.584
  C       23.997      39.656    -167.259
  C       22.774      38.972    -167.379
  N       22.652      37.742    -167.990
  N       25.284      39.356    -167.663
  C       26.011      40.376    -167.253
  N       25.265      41.299    -166.566
  O       30.947      42.562    -168.674
  O       29.750      40.638    -169.913
  H       27.489      43.074    -163.219
  H       31.201      41.872    -168.033
  H       20.869      41.139    -165.806
  H       27.075      40.488    -167.417
  H       24.846      43.007    -165.485
  H       26.811      41.324    -164.380
  H       28.236      41.535    -166.345
  H       27.758      44.571    -166.098
  H       28.019      44.493    -168.580
  H       21.769      37.268    -167.895
  H       23.491      37.250    -168.259
  H       29.505      44.003    -167.716
  P       30.331      41.587    -164.803
  C       29.677      41.513    -162.289
  O       29.945      40.773    -163.475
  O       31.638      42.402    -164.369
  O       30.559      40.763    -166.027
  H       32.448      41.970    -164.706
  H       29.436      40.838    -161.494
  H       28.852      42.173    -162.459
  H       30.541      42.084    -162.022

 6  7  8  9  10  11  12  13  14  15  25  28  32  33  34  35 0
 6-311+G(2d,p)
 ****
 36  39  40 0
 6-311+G(2d,p)
 ****
 1  2  3  4  5  16  17  18  19  20  21  22  23  24 0
 3-21G
 ****
 26  27  29  30  31  37  38  41  42  43  44  45  46  47 0
 3-21G
 ****
 48 0
 3-21G
 ****


