%nproc=1
%NoSave
%Mem=1900MB
#P OB98/GEN NMR

erre ene a

0 1
  C     -101.313     241.592      -9.243
  O     -102.598     241.800      -9.796
  H     -100.565     241.962      -9.948
  H     -101.146     240.525      -9.080
  H     -101.211     242.136      -8.299
  P     -103.853     241.494      -8.838
  C     -105.401     243.112     -10.207
  O     -105.152     241.803      -9.725
  C     -104.662     243.347     -11.524
  O     -104.798     242.165     -12.350
  C     -105.189     244.538     -12.324
  O     -104.083     245.187     -12.956
  C     -106.082     243.898     -13.372
  O     -106.240     244.731     -14.518
  C     -105.362     242.565     -13.616
  N     -106.258     241.539     -14.147
  C     -106.264     241.368     -15.536
  O     -105.555     242.077     -16.249
  N     -107.103     240.431     -16.084
  C     -107.918     239.771     -15.321
  N     -108.739     238.873     -15.929
  C     -107.984     239.957     -13.859
  C     -107.128     240.839     -13.343
  O     -103.786     242.724      -7.816
  O     -103.817     240.149      -8.195
  H     -105.344     245.003     -14.821
  H     -103.578     243.573      -8.240
  H     -108.692     239.395     -13.267
  H     -107.104     241.031     -12.278
  H     -104.534     242.699     -14.323
  H     -107.079     243.717     -12.950
  H     -105.737     245.260     -11.718
  H     -103.593     243.457     -11.307
  H     -108.677     238.789     -16.935
  H     -105.079     243.855      -9.471
  H     -109.446     238.344     -15.441
  H     -106.480     243.220     -10.352
  P     -102.967     245.893     -12.051
  C     -100.744     245.241     -13.184
  O     -101.707     246.264     -12.972
  O     -102.633     245.200     -10.772
  O     -103.610     247.338     -11.757
  H     -103.393     247.580     -10.836
  H      -99.960     245.613     -13.810
  H     -101.212     244.403     -13.658
  H     -100.335     244.936     -12.244

 6  7  8  9  10  11  12  13  14  15  16  26  30  31  32  33  35 0
 6-311+G(2d,p)
 ****
 37  38 0
 6-311+G(2d,p)
 ****
 1  2  3  4  5  17  18  19  20  21  22  23  24  25 0
 3-21G
 ****
 27  28  29  34  36  39  40  41  42  43  44  45  46 0
 3-21G
 ****


