%nproc=1
%NoSave
%Mem=1900MB
#P OB98/GEN NMR

erre ene a

0 1
  C      205.273    -146.103    -160.795
  O      205.138    -146.515    -159.448
  H      205.154    -146.978    -161.440
  H      206.263    -145.671    -160.963
  H      204.498    -145.374    -161.041
  P      205.317    -145.378    -158.331
  C      204.688    -142.944    -158.898
  O      204.214    -144.271    -158.710
  C      203.623    -141.931    -158.477
  O      202.469    -142.089    -159.342
  C      203.150    -142.111    -157.032
  O      202.925    -140.829    -156.449
  C      201.828    -142.843    -157.179
  O      200.957    -142.619    -156.074
  C      201.315    -142.294    -158.509
  N      196.740    -144.510    -158.080
  C      197.342    -143.533    -157.368
  N      198.562    -142.988    -157.561
  C      199.153    -143.522    -158.646
  C      198.665    -144.523    -159.466
  C      197.396    -145.033    -159.143
  N      196.787    -146.045    -159.847
  N      199.585    -144.832    -160.449
  C      200.603    -144.020    -160.234
  N      200.394    -143.221    -159.144
  O      206.703    -144.861    -158.149
  O      204.672    -146.081    -157.047
  H      201.271    -143.158    -155.319
  H      203.839    -146.536    -157.269
  H      196.773    -143.142    -156.528
  H      201.512    -143.983    -160.825
  H      200.790    -141.338    -158.396
  H      202.011    -143.922    -157.250
  H      203.861    -142.674    -156.426
  H      204.011    -140.920    -158.647
  H      204.950    -142.783    -159.949
  H      195.868    -146.340    -159.556
  H      197.252    -146.436    -160.654
  H      205.591    -142.819    -158.292
  P      204.196    -139.941    -156.042
  C      205.555    -137.979    -157.023
  O      204.520    -138.931    -157.247
  O      205.366    -140.688    -155.498
  O      203.586    -138.956    -154.932
  H      204.255    -138.812    -154.236
  H      205.673    -137.369    -157.894
  H      206.472    -138.491    -156.818
  H      205.297    -137.362    -156.188

 6  7  8  9  10  11  12  13  14  15  25  28  32  33  34  35 0
 6-311+G(2d,p)
 ****
 36  39  40 0
 6-311+G(2d,p)
 ****
 1  2  3  4  5  16  17  18  19  20  21  22  23  24 0
 3-21G
 ****
 26  27  29  30  31  37  38  41  42  43  44  45  46  47 0
 3-21G
 ****
 48 0
 3-21G
 ****


