%nproc=1
%NoSave
%Mem=1900MB
#P OB98/GEN NMR

erre ene a

0 1
  C      133.545     393.201       2.236
  O      132.714     394.095       2.947
  H      132.915     392.544       1.630
  H      134.131     392.587       2.924
  H      134.213     393.754       1.567
  P      133.392     395.093       3.999
  C      131.921     397.103       3.302
  O      133.235     396.571       3.398
  C      131.919     398.607       3.615
  O      132.169     398.792       5.038
  C      132.997     399.401       2.856
  O      132.490     400.728       2.657
  C      134.129     399.405       3.863
  O      135.114     400.351       3.528
  C      133.345     399.619       5.161
  N      134.125     399.296       6.346
  C      135.000     400.285       6.800
  O      135.093     401.357       6.198
  N      135.773     400.029       7.904
  C      135.724     398.859       8.466
  N      136.526     398.662       9.545
  C      134.855     397.765       7.981
  C      134.085     398.051       6.930
  O      134.774     394.738       4.434
  O      132.373     395.098       5.237
  H      135.342     400.298       2.573
  H      132.743     394.568       5.969
  H      134.866     396.804       8.471
  H      133.418     397.311       6.500
  H      133.006     400.662       5.242
  H      134.629     398.428       3.884
  H      133.260     398.951       1.898
  H      130.917     399.009       3.415
  H      137.112     399.437       9.836
  H      131.296     396.569       4.026
  H      136.588     397.790      10.048
  H      131.518     396.939       2.297
  P      132.781     401.584       1.335
  C      130.362     401.163       0.541
  O      131.744     401.164       0.189
  O      134.212     401.558       0.901
  O      132.346     403.080       1.702
  H      132.902     403.708       1.206
  H      129.779     400.867      -0.306
  H      130.071     402.146       0.848
  H      130.199     400.476       1.345

 6  7  8  9  10  11  12  13  14  15  16  26  30  31  32  33  35 0
 6-311+G(2d,p)
 ****
 37  38 0
 6-311+G(2d,p)
 ****
 1  2  3  4  5  17  18  19  20  21  22  23  24  25 0
 3-21G
 ****
 27  28  29  34  36  39  40  41  42  43  44  45  46 0
 3-21G
 ****


