%nproc=1
%NoSave
%Mem=1900MB
#P OB98/GEN NMR

erre ene a

0 1
  C     -104.264     -43.998     -71.066
  O     -102.958     -44.547     -71.048
  P     -101.995     -44.239     -72.297
  C     -103.225     -46.167     -73.545
  O     -102.718     -44.843     -73.595
  C     -104.261     -46.387     -74.650
  O     -105.186     -45.269     -74.644
  C     -103.680     -46.487     -76.065
  O     -104.523     -47.383     -76.800
  C     -103.844     -45.078     -76.603
  O     -103.829     -45.027     -78.026
  C     -105.172     -44.684     -75.965
  N     -107.922     -40.691     -77.405
  C     -108.015     -42.016     -77.793
  N     -109.022     -42.324     -78.637
  N     -107.197     -42.952     -77.387
  C     -106.250     -42.496     -76.532
  C     -106.032     -41.208     -76.106
  C     -106.965     -40.190     -76.531
  O     -106.974     -39.023     -76.146
  N     -104.919     -41.121     -75.313
  C     -104.513     -42.370     -75.194
  N     -105.315     -43.244     -75.877
  O     -100.766     -45.231     -72.051
  O     -101.563     -42.814     -72.445
  H     -102.968     -45.382     -78.329
  H     -100.044     -44.785     -71.569
  H     -108.592     -40.019     -77.737
  H     -103.657     -42.698     -74.627
  H     -106.036     -45.071     -76.520
  H     -103.027     -44.445     -76.236
  H     -109.706     -41.660     -78.965
  H     -102.643     -46.832     -76.089
  H     -109.133     -43.293     -78.911
  H     -104.836     -47.288     -74.407
  H     -103.710     -46.324     -72.576
  H     -102.400     -46.880     -73.638
  P     -103.868     -48.205     -78.010
  C     -104.176     -46.481     -79.918
  O     -103.277     -47.145     -79.052
  O     -105.149     -48.795     -78.773
  O     -102.945     -49.304     -77.595
  H     -104.925     -49.658     -79.170
  H     -103.715     -45.550     -80.257
  H     -105.119     -46.244     -79.416
  H     -104.377     -47.112     -80.787
  H     -104.784     -44.286     -70.176
  H     -104.792     -44.363     -71.922
  H     -104.202     -42.931     -71.113

 3  4  5  6  7  8  9  10  11  12  23  26  30  31 0
 6-311+G(2d,p)
 ****
 33  35  36  37  38 0
 6-311+G(2d,p)
 ****
 1  2  13  14  15  16  17  18  19  20  21  22  24  25 0
 3-21G
 ****
 27  28  29  32  34  39  40  41  42  43  44  45  46  47  48  49 0
 3-21G
 ****


