%nproc=1
%NoSave
%Mem=1900MB
#P OB98/GEN NMR

erre ene a

0 1
  C       -6.394     -75.312      56.175
  O       -5.848     -75.225      57.474
  P       -5.073     -76.458      58.144
  C       -3.479     -74.604      58.937
  O       -4.131     -75.818      59.276
  C       -3.010     -73.856      60.187
  O       -4.162     -73.489      60.996
  C       -2.049     -74.649      61.083
  O       -1.148     -73.694      61.652
  C       -2.977     -75.204      62.145
  O       -2.287     -75.607      63.322
  C       -3.952     -74.031      62.317
  N       -5.201     -74.447      62.946
  C       -5.192     -74.570      64.339
  O       -4.146     -74.407      64.969
  N       -6.351     -74.927      64.979
  C       -7.398     -75.236      64.280
  N       -8.521     -75.578      64.969
  C       -7.413     -75.242      62.805
  C       -6.297     -74.827      62.209
  O       -4.379     -77.368      57.189
  O       -6.204     -77.187      59.010
  H       -2.944     -75.963      63.959
  H       -6.794     -77.725      58.425
  H       -8.291     -75.562      62.266
  H       -6.213     -74.796      61.132
  H       -3.501     -73.241      62.930
  H       -3.504     -76.082      61.753
  H       -1.501     -75.432      60.553
  H       -2.532     -72.924      59.861
  H       -8.472     -75.546      65.980
  H       -4.194     -73.974      58.400
  H       -9.408     -75.755      64.525
  H       -2.639     -74.804      58.265
  P        0.428     -73.974      61.723
  C        0.868     -71.795      62.990
  O        0.981     -73.206      63.013
  O        1.176     -73.701      60.460
  O        0.538     -75.518      62.142
  H        1.442     -75.838      61.964
  H        1.007     -71.411      64.004
  H       -0.117     -71.488      62.626
  H        1.641     -71.375      62.342
  H       -6.864     -74.385      55.923
  H       -7.118     -76.099      56.144
  H       -5.613     -75.518      55.473

 3  4  5  6  7  8  9  10  11  12  13  23  27  28  29  30  32 0
 6-311+G(2d,p)
 ****
 34  35 0
 6-311+G(2d,p)
 ****
 1  2  14  15  16  17  18  19  20  21  22  24  25  26 0
 3-21G
 ****
 31  33  36  37  38  39  40  41  42  43  44  45  46 0
 3-21G
 ****


