%nproc=1
%NoSave
%Mem=1900MB
#P OB98/GEN NMR

erre ene a

0 1
  C      418.026     662.290    -899.090
  O      418.839     662.005    -897.960
  H      417.154     661.619    -899.060
  H      418.586     662.100    -900.000
  H      417.672     663.318    -899.060
  P      420.132     662.952    -897.750
  C      419.316     663.914    -895.470
  O      420.297     663.138    -896.160
  C      418.926     663.257    -894.140
  O      417.977     662.177    -894.410
  C      420.118     662.622    -893.370
  O      419.867     662.801    -891.970
  C      419.990     661.148    -893.710
  O      420.665     660.327    -892.760
  C      418.465     660.992    -893.740
  N      417.083     656.229    -892.970
  C      417.379     657.224    -892.050
  N      417.316     656.915    -890.740
  N      417.723     658.434    -892.410
  C      417.731     658.628    -893.760
  C      417.461     657.689    -894.760
  C      417.097     656.363    -894.350
  O      416.823     655.419    -895.100
  N      417.589     658.264    -896.010
  C      417.962     659.529    -895.750
  N      418.054     659.773    -894.410
  O      419.601     664.383    -898.250
  O      421.370     662.518    -898.480
  H      420.502     659.383    -893.000
  H      419.831     664.511    -899.190
  H      416.823     655.310    -892.630
  H      418.168     660.269    -896.530
  H      418.039     660.958    -892.740
  H      420.433     660.938    -894.700
  H      416.995     656.028    -890.390
  H      421.088     663.048    -893.630
  H      417.491     657.648    -890.070
  H      418.403     663.996    -893.530
  H      418.421     663.997    -896.120
  H      419.727     664.918    -895.300
  P      421.058     662.491    -890.950
  C      421.096     664.927    -889.990
  O      420.962     663.539    -889.730
  O      422.336     663.041    -891.750
  O      421.228     661.046    -890.570
  H      423.146     662.560    -891.470
  H      421.007     665.472    -889.073
  H      420.328     665.239    -890.667
  H      422.054     665.117    -890.426

 6  7  8  9  10  11  12  13  14  15  26  29  33  34 0
 6-311+G(2d,p)
 ****
 36  38  39  40  41 0
 6-311+G(2d,p)
 ****
 1  2  3  4  5  16  17  18  19  20  21  22  23  24  25 0
 3-21G
 ****
 27  28  30  31  32  35  37  42  43  44  45  46  47 0
 3-21G
 ****
 48  49 0
 3-21G
 ****


