%nproc=1
%NoSave
%Mem=1900MB
#P OB98/GEN NMR

erre ene a

0 1
  C      -80.967    -635.473    -122.534
  O      -80.287    -636.023    -123.642
  H      -80.757    -634.401    -122.492
  H      -80.608    -635.935    -121.612
  H      -82.046    -635.612    -122.622
  P      -80.648    -637.513    -124.110
  C      -78.516    -638.422    -122.979
  O      -79.929    -638.502    -123.069
  C      -77.926    -639.737    -122.463
  O      -78.160    -640.779    -123.459
  C      -76.412    -639.686    -122.200
  O      -76.131    -640.591    -121.127
  C      -75.855    -640.226    -123.505
  O      -74.515    -640.639    -123.360
  C      -76.875    -641.321    -123.820
  N      -76.827    -641.743    -125.219
  C      -75.868    -642.694    -125.548
  O      -75.065    -643.153    -124.736
  N      -75.827    -643.078    -126.862
  C      -76.595    -642.563    -127.864
  O      -76.495    -642.919    -129.031
  C      -77.564    -641.525    -127.463
  C      -77.635    -641.172    -126.177
  O      -80.384    -637.821    -125.544
  O      -82.197    -637.679    -123.739
  H      -74.431    -641.267    -122.608
  H      -82.626    -638.295    -124.361
  H      -75.147    -643.773    -127.114
  H      -78.179    -641.092    -128.240
  H      -78.337    -640.414    -125.852
  H      -76.694    -642.208    -123.196
  H      -75.874    -639.452    -124.282
  H      -76.052    -638.684    -121.960
  H      -78.472    -640.037    -121.562
  H      -78.267    -637.609    -122.290
  H      -78.099    -638.192    -123.969
  P      -75.812    -640.079    -119.642
  C      -73.421    -639.468    -120.375
  O      -74.598    -639.029    -119.704
  O      -75.623    -641.177    -118.642
  O      -77.072    -639.165    -119.246
  H      -77.193    -639.178    -118.277
  H      -72.687    -638.690    -120.353
  H      -73.657    -639.706    -121.391
  H      -73.035    -640.337    -119.885

 6  7  8  9  10  11  12  13  14  15  16  26  31  32  33  34  35 0
 6-311+G(2d,p)
 ****
 36  37 0
 6-311+G(2d,p)
 ****
 1  2  3  4  5  17  18  19  20  21  22  23  24  25 0
 3-21G
 ****
 27  28  29  30  38  39  40  41  42  43  44  45 0
 3-21G
 ****


