%nproc=1
%NoSave
%Mem=1900MB
#P OB98/GEN NMR

erre ene a

0 1
  C     -349.345    -306.929     -65.504
  O     -349.186    -306.639     -66.874
  H     -350.241    -307.547     -65.379
  H     -349.478    -306.003     -64.940
  H     -348.486    -307.478     -65.111
  P     -347.794    -306.029     -67.378
  C     -348.088    -304.036     -65.760
  O     -347.239    -305.086     -66.206
  C     -347.642    -303.514     -64.394
  O     -347.633    -304.615     -63.446
  C     -346.210    -302.953     -64.442
  O     -345.995    -301.941     -63.466
  C     -345.367    -304.172     -64.093
  O     -344.078    -303.829     -63.577
  C     -346.271    -304.884     -63.080
  N     -343.315    -308.679     -61.365
  C     -343.087    -307.314     -61.359
  N     -341.907    -306.910     -60.817
  N     -343.913    -306.433     -61.855
  C     -345.015    -306.987     -62.424
  C     -345.350    -308.314     -62.514
  C     -344.440    -309.281     -61.928
  O     -344.589    -310.496     -61.929
  N     -346.539    -308.486     -63.168
  C     -346.927    -307.270     -63.483
  N     -346.045    -306.314     -63.031
  O     -348.229    -304.969     -68.499
  O     -346.806    -307.026     -67.918
  H     -343.672    -304.651     -63.246
  H     -347.487    -304.794     -69.105
  H     -342.663    -309.307     -60.940
  H     -347.836    -307.016     -64.022
  H     -346.100    -304.485     -62.071
  H     -345.203    -304.751     -65.004
  H     -341.167    -307.561     -60.606
  H     -345.945    -302.566     -65.421
  H     -341.582    -305.975     -61.085
  H     -348.364    -302.780     -64.019
  H     -349.104    -304.451     -65.708
  H     -348.110    -303.230     -66.495
  P     -345.893    -300.417     -63.951
  C     -343.263    -300.092     -63.791
  O     -344.445    -300.143     -64.566
  O     -345.891    -299.583     -62.589
  O     -346.993    -299.991     -64.868
  H     -346.689    -299.022     -62.527
  H     -342.427    -299.896     -64.429
  H     -343.121    -301.029     -63.295
  H     -343.347    -299.312     -63.063

 6  7  8  9  10  11  12  13  14  15  26  29  33  34 0
 6-311+G(2d,p)
 ****
 36  38  39  40  41 0
 6-311+G(2d,p)
 ****
 1  2  3  4  5  16  17  18  19  20  21  22  23  24  25 0
 3-21G
 ****
 27  28  30  31  32  35  37  42  43  44  45  46  47 0
 3-21G
 ****
 48  49 0
 3-21G
 ****


