%nproc=1
%NoSave
%Mem=1900MB
#P OB98/GEN NMR

erre ene a

0 1
  C     -117.602    -253.789      71.886
  O     -117.934    -252.605      71.193
  H     -116.755    -253.580      72.545
  H     -117.309    -254.573      71.182
  H     -118.443    -254.128      72.495
  P     -119.152    -252.644      70.150
  C     -120.985    -251.291      71.383
  O     -120.466    -252.575      71.077
  C     -121.317    -251.197      72.869
  O     -120.118    -251.126      73.670
  C     -122.117    -249.962      73.271
  O     -123.479    -250.010      72.880
  C     -121.945    -250.018      74.778
  O     -122.794    -251.042      75.324
  C     -120.452    -250.404      74.890
  N     -119.580    -249.243      75.055
  C     -118.327    -249.477      75.632
  O     -117.999    -250.608      75.986
  N     -117.480    -248.414      75.831
  C     -117.860    -247.216      75.504
  N     -116.984    -246.199      75.728
  C     -119.179    -246.922      74.910
  C     -119.978    -247.969      74.713
  O     -119.128    -253.759      69.155
  O     -119.156    -251.190      69.480
  H     -123.701    -250.849      75.023
  H     -119.886    -251.166      68.817
  H     -119.459    -245.905      74.683
  H     -120.965    -247.832      74.288
  H     -120.288    -251.092      75.729
  H     -122.205    -249.083      75.277
  H     -121.638    -249.048      72.899
  H     -121.837    -252.122      73.150
  H     -116.089    -246.430      76.135
  H     -121.878    -251.129      70.770
  H     -117.225    -245.228      75.574
  H     -120.247    -250.521      71.145
  P     -123.940    -248.996      71.721
  C     -124.924    -250.856      70.175
  O     -123.949    -249.844      70.362
  O     -122.680    -248.027      71.567
  O     -125.210    -248.255      71.993
  H     -122.825    -247.192      72.055
  H     -124.782    -251.316      69.219
  H     -125.901    -250.423      70.221
  H     -124.825    -251.593      70.944

 6  7  8  9  10  11  12  13  14  15  16  26  30  31  32  33  35 0
 6-311+G(2d,p)
 ****
 37  38 0
 6-311+G(2d,p)
 ****
 1  2  3  4  5  17  18  19  20  21  22  23  24  25 0
 3-21G
 ****
 27  28  29  34  36  39  40  41  42  43  44  45  46 0
 3-21G
 ****


