%nproc=1
%NoSave
%Mem=1900MB
#P OB98/GEN NMR

erre ene a

0 1
  C     -515.047      -8.469     583.648
  O     -514.157      -7.458     584.142
  P     -514.617      -6.366     585.223
  C     -512.900      -6.618     587.126
  O     -513.322      -5.839     586.009
  C     -511.487      -7.180     586.921
  O     -511.480      -8.185     585.889
  C     -510.449      -6.139     586.510
  O     -510.023      -5.389     587.634
  C     -509.372      -7.025     585.882
  O     -508.545      -7.613     586.904
  C     -510.223      -8.105     585.193
  N     -508.381      -8.860     580.480
  C     -507.959      -9.282     581.691
  N     -508.499      -9.033     582.907
  C     -509.609      -8.280     582.783
  C     -510.163      -7.774     581.614
  C     -509.492      -8.091     580.418
  N     -509.920      -7.649     579.183
  N     -511.283      -7.028     581.887
  C     -511.425      -7.099     583.193
  N     -510.438      -7.847     583.780
  O     -515.731      -6.815     586.111
  O     -515.065      -5.099     584.353
  H     -509.144      -7.935     587.605
  H     -515.741      -4.590     584.837
  H     -507.063      -9.899     581.691
  H     -512.219      -6.633     583.766
  H     -509.754      -9.095     585.279
  H     -508.719      -6.477     585.202
  H     -510.865      -5.478     585.746
  H     -511.188      -7.672     587.858
  H     -513.606      -7.444     587.259
  H     -509.367      -7.889     578.376
  H     -510.720      -7.038     579.132
  H     -512.921      -5.987     588.021
  P     -509.811      -3.806     587.505
  C     -512.190      -2.844     587.592
  O     -510.998      -3.103     588.316
  O     -509.602      -3.292     586.118
  O     -508.535      -3.516     588.428
  H     -508.052      -2.744     588.084
  H     -512.063      -1.942     586.990
  H     -513.008      -2.692     588.301
  H     -512.436      -3.688     586.941
  H     -514.531      -9.084     582.940
  H     -515.885      -8.005     583.172
  H     -515.388      -9.073     584.463

 3  4  5  6  7  8  9  10  11  12  22  25  29  30  31  32 0
 6-311+G(2d,p)
 ****
 33  36  37 0
 6-311+G(2d,p)
 ****
 1  2  13  14  15  16  17  18  19  20  21  23  24  26 0
 3-21G
 ****
 27  28  34  35  38  39  40  41  42  43  44  45  46  47  48 0
 3-21G
 ****


