%nproc=1
%NoSave
%Mem=1900MB
#P OB98/GEN NMR

erre ene a

0 1
  C     -350.546     -88.498     -28.778
  O     -349.155     -88.564     -28.534
  P     -348.420     -89.975     -28.363
  C     -346.956     -89.987     -30.463
  O     -348.106     -90.538     -29.833
  C     -346.104     -91.076     -31.115
  O     -344.908     -90.470     -31.676
  C     -345.649     -92.191     -30.163
  O     -345.609     -93.398     -30.930
  C     -344.234     -91.768     -29.807
  O     -343.439     -92.844     -29.324
  C     -343.779     -91.190     -31.141
  N     -338.678     -90.856     -31.129
  C     -339.508     -91.915     -31.238
  N     -340.856     -91.924     -31.208
  C     -341.336     -90.680     -31.046
  C     -340.613     -89.511     -30.890
  C     -339.213     -89.625     -30.952
  N     -338.353     -88.553     -30.879
  N     -341.467     -88.441     -30.688
  C     -342.676     -88.960     -30.725
  N     -342.648     -90.298     -31.003
  O     -349.106     -90.945     -27.460
  O     -346.972     -89.592     -27.804
  H     -342.507     -92.558     -29.312
  H     -346.912     -89.817     -26.854
  H     -339.028     -92.880     -31.374
  H     -343.596     -88.418     -30.559
  H     -343.505     -91.972     -31.858
  H     -344.266     -90.996     -29.027
  H     -346.285     -92.312     -29.282
  H     -346.674     -91.498     -31.954
  H     -346.363     -89.477     -29.699
  H     -337.380     -88.733     -31.069
  H     -338.723     -87.616     -31.014
  H     -347.262     -89.248     -31.213
  P     -345.702     -94.818     -30.190
  C     -348.080     -95.265     -31.028
  O     -347.254     -95.074     -29.893
  O     -344.790     -94.992     -29.023
  O     -345.380     -95.868     -31.357
  H     -345.138     -96.729     -30.963
  H     -348.329     -94.293     -31.462
  H     -349.001     -95.766     -30.718
  H     -347.578     -95.880     -31.780
  H     -350.845     -87.474     -28.861
  H     -351.072     -88.959     -27.968
  H     -350.773     -89.011     -29.689

 3  4  5  6  7  8  9  10  11  12  22  25  29  30  31  32 0
 6-311+G(2d,p)
 ****
 33  36  37 0
 6-311+G(2d,p)
 ****
 1  2  13  14  15  16  17  18  19  20  21  23  24  26 0
 3-21G
 ****
 27  28  34  35  38  39  40  41  42  43  44  45  46  47  48 0
 3-21G
 ****


