%nproc=1
%NoSave
%Mem=1900MB
#P OB98/GEN NMR

erre ene a

0 1
  C       -6.142     287.210      82.655
  O       -4.824     287.668      82.873
  H       -6.572     287.764      81.817
  H       -6.751     287.398      83.542
  H       -6.154     286.144      82.412
  P       -3.865     286.842      83.855
  C       -2.478     285.916      81.885
  O       -2.469     286.684      83.081
  C       -1.118     286.011      81.187
  O       -0.882     287.410      80.840
  C        0.058     285.542      82.064
  O        1.044     284.932      81.223
  C        0.578     286.860      82.603
  O        1.901     286.754      83.067
  C        0.400     287.763      81.387
  N        0.485     289.174      81.751
  C        1.708     289.805      81.550
  O        2.703     289.237      81.098
  N        1.785     291.109      81.954
  C        0.816     291.791      82.629
  O        0.969     292.935      83.039
  C       -0.438     291.059      82.861
  C       -0.548     289.807      82.415
  O       -4.425     285.569      84.397
  O       -3.489     287.883      85.011
  H        2.512     286.664      82.313
  H       -3.192     287.410      85.812
  H        2.664     291.583      81.806
  H       -1.223     291.568      83.407
  H       -1.451     289.229      82.584
  H        1.160     287.544      80.623
  H       -0.046     287.199      83.439
  H       -0.245     284.845      82.850
  H       -1.159     285.452      80.246
  H       -3.262     286.312      81.228
  H       -2.707     284.871      82.120
  P        0.828     283.477      80.582
  C        2.221     284.069      78.507
  O        2.020     283.129      79.557
  O       -0.541     283.249      80.021
  O        1.088     282.468      81.802
  H        0.383     281.791      81.811
  H        3.031     283.744      77.888
  H        2.453     285.026      78.925
  H        1.330     284.143      77.919

 6  7  8  9  10  11  12  13  14  15  16  26  31  32  33  34  35 0
 6-311+G(2d,p)
 ****
 36  37 0
 6-311+G(2d,p)
 ****
 1  2  3  4  5  17  18  19  20  21  22  23  24  25 0
 3-21G
 ****
 27  28  29  30  38  39  40  41  42  43  44  45 0
 3-21G
 ****


