%nproc=1
%NoSave
%Mem=1900MB
#P OB98/GEN NMR

erre ene a

0 1
  C       39.550      12.700      43.625
  O       40.102      11.614      44.363
  P       39.310      10.222      44.386
  C       38.717      10.406      46.958
  O       39.238       9.663      45.879
  C       38.807       9.567      48.243
  O       37.875       8.466      48.188
  C       40.191       8.969      48.476
  O       41.049       9.865      49.158
  C       39.864       7.721      49.270
  O       39.591       8.057      50.642
  C       38.572       7.244      48.563
  N       38.708       6.391      47.364
  C       39.016       5.040      47.507
  O       39.193       4.481      48.586
  N       39.106       4.318      46.346
  C       38.762       4.749      45.099
  O       38.806       4.040      44.103
  C       38.300       6.139      45.022
  C       38.306       6.884      46.130
  O       40.299       9.210      43.645
  O       37.964      10.269      43.733
  H       39.433       7.223      51.118
  H       39.900       8.893      42.813
  H       39.398       3.356      46.425
  H       37.972       6.510      44.061
  H       37.967       7.916      46.083
  H       37.928       6.701      49.265
  H       40.705       7.032      49.288
  H       40.633       8.656      47.525
  H       38.529      10.204      49.092
  H       37.679      10.690      46.770
  H       39.283      11.336      47.072
  P       41.726      11.080      48.367
  C       43.652       9.533      47.679
  O       43.295      10.744      48.318
  O       41.374      12.449      48.843
  O       41.273      10.837      46.848
  H       40.478      11.376      46.631
  H       44.740       9.501      47.573
  H       43.197       9.475      46.687
  H       43.331       8.684      48.287
  H       40.193      13.551      43.708
  H       38.584      12.943      44.016
  H       39.458      12.422      42.596

 3  4  5  6  7  8  9  10  11  12  13  23  28  29  30  31  32 0
 6-311+G(2d,p)
 ****
 33  34 0
 6-311+G(2d,p)
 ****
 1  2  14  15  16  17  18  19  20  21  22  24  25  26  27 0
 3-21G
 ****
 35  36  37  38  39  40  41  42  43  44  45 0
 3-21G
 ****


