%nproc=1
%NoSave
%Mem=1900MB
#P OB98/GEN NMR

erre ene a

0 1
  C      844.506    -681.258    -216.791
  O      844.790    -680.813    -215.448
  P      845.811    -681.671    -214.546
  C      847.313    -681.313    -212.457
  O      846.379    -680.755    -213.382
  C      847.742    -680.264    -211.416
  O      848.589    -679.247    -211.981
  C      846.570    -679.514    -210.795
  O      845.986    -680.257    -209.743
  C      847.266    -678.292    -210.243
  O      847.910    -678.610    -208.972
  C      848.328    -677.995    -211.304
  N      848.609    -673.061    -212.608
  C      849.096    -673.731    -211.551
  N      848.953    -675.055    -211.271
  C      848.270    -675.674    -212.223
  C      847.679    -675.107    -213.346
  C      847.879    -673.723    -213.543
  N      847.378    -673.028    -214.619
  N      847.022    -676.058    -214.104
  C      847.181    -677.178    -213.432
  N      847.914    -677.001    -212.290
  O      847.076    -681.874    -215.531
  O      845.274    -682.992    -214.129
  H      848.269    -677.742    -208.646
  H      847.476    -682.730    -215.374
  H      849.673    -673.155    -210.832
  H      846.807    -678.146    -213.737
  H      849.283    -677.651    -210.891
  H      846.582    -677.447    -210.020
  H      845.829    -679.212    -211.554
  H      848.304    -680.782    -210.628
  H      848.197    -681.665    -212.993
  H      847.591    -672.047    -214.711
  H      846.861    -673.532    -215.327
  H      846.851    -682.190    -211.963
  P      844.452    -680.743    -209.961
  C      842.951    -682.560    -208.847
  O      844.147    -681.797    -208.788
  O      844.533    -681.623    -211.275
  O      843.464    -679.619    -210.070
  H      843.680    -681.550    -211.772
  H      843.065    -683.419    -208.178
  H      842.765    -682.900    -209.878
  H      842.122    -681.950    -208.512
  H      843.815    -680.583    -217.252
  H      844.080    -682.239    -216.759
  H      845.413    -681.282    -217.358

 3  4  5  6  7  8  9  10  11  12  22  25  29  30  31  32 0
 6-311+G(2d,p)
 ****
 33  36  37 0
 6-311+G(2d,p)
 ****
 1  2  13  14  15  16  17  18  19  20  21  23  24  26 0
 3-21G
 ****
 27  28  34  35  38  39  40  41  42  43  44  45  46  47  48 0
 3-21G
 ****


