%nproc=1
%NoSave
%Mem=1900MB
#P OB98/GEN NMR

erre ene a

0 1
  C        4.544    -506.055     -17.715
  O        4.946    -504.825     -18.280
  H        5.401    -506.732     -17.705
  H        3.754    -506.501     -18.323
  H        4.193    -505.923     -16.689
  P        3.973    -503.559     -18.154
  C        5.345    -501.748     -16.936
  O        4.913    -502.259     -18.189
  C        6.704    -501.053     -17.070
  O        7.700    -502.041     -17.467
  C        6.729    -499.930     -18.119
  O        7.681    -498.955     -17.677
  C        7.251    -500.660     -19.340
  O        7.732    -499.762     -20.314
  C        8.290    -501.585     -18.698
  N        8.668    -502.693     -19.573
  C        9.613    -502.417     -20.554
  O       10.101    -501.300     -20.724
  N        9.954    -503.458     -21.371
  C        9.405    -504.707     -21.341
  O        9.724    -505.594     -22.122
  C        8.377    -504.929     -20.312
  C        8.061    -503.929     -19.485
  O        3.004    -503.598     -17.021
  O        3.231    -503.489     -19.571
  H        8.588    -499.377     -20.027
  H        2.338    -503.108     -19.464
  H       10.646    -503.277     -22.080
  H        7.914    -505.906     -20.269
  H        7.310    -504.063     -18.716
  H        9.202    -501.026     -18.447
  H        6.455    -501.249     -19.807
  H        5.753    -499.468     -18.279
  H        7.005    -500.679     -16.084
  H        5.425    -502.588     -16.238
  H        4.603    -501.039     -16.555
  P        7.272    -497.428     -17.398
  C        8.800    -497.150     -15.343
  O        8.493    -496.695     -16.658
  O        5.953    -497.262     -16.715
  O        7.250    -496.742     -18.844
  H        6.619    -495.998     -18.845
  H        9.626    -496.590     -14.956
  H        9.057    -498.188     -15.376
  H        7.948    -497.013     -14.710

 6  7  8  9  10  11  12  13  14  15  16  26  31  32  33  34  35 0
 6-311+G(2d,p)
 ****
 36  37 0
 6-311+G(2d,p)
 ****
 1  2  3  4  5  17  18  19  20  21  22  23  24  25 0
 3-21G
 ****
 27  28  29  30  38  39  40  41  42  43  44  45 0
 3-21G
 ****


