%nproc=1
%NoSave
%Mem=1900MB
#P OB98/GEN NMR

erre ene a

0 1
  C     -280.269    -191.831     234.674
  O     -279.913    -190.482     235.022
  P     -280.892    -189.280     234.592
  C     -281.645    -188.181     232.338
  O     -280.719    -189.012     233.018
  C     -280.945    -186.920     231.815
  O     -280.507    -186.092     232.916
  C     -279.692    -187.197     230.998
  O     -279.995    -187.634     229.685
  C     -279.001    -185.835     231.043
  O     -279.542    -184.956     230.041
  C     -279.357    -185.343     232.457
  N     -278.242    -185.448     233.391
  C     -277.630    -184.258     233.761
  O     -277.952    -183.160     233.310
  N     -276.607    -184.370     234.667
  C     -276.096    -185.537     235.167
  O     -275.165    -185.572     235.955
  C     -276.730    -186.769     234.669
  C     -277.755    -186.667     233.819
  O     -280.156    -188.003     235.226
  O     -282.298    -189.381     235.087
  H     -280.501    -184.888     230.217
  H     -280.815    -187.313     235.428
  H     -276.167    -183.518     234.978
  H     -276.342    -187.715     235.022
  H     -278.233    -187.569     233.442
  H     -279.683    -184.294     232.421
  H     -277.923    -185.906     230.858
  H     -279.058    -187.931     231.519
  H     -281.672    -186.347     231.224
  H     -282.442    -187.890     233.027
  H     -282.093    -188.745     231.511
  P     -279.325    -189.013     229.209
  C     -277.137    -189.570     227.886
  O     -277.996    -188.586     228.418
  O     -280.358    -189.477     228.069
  O     -279.140    -189.993     230.324
  H     -280.743    -188.719     227.594
  H     -277.695    -190.452     227.553
  H     -276.405    -189.864     228.649
  H     -276.608    -189.150     227.027
  H     -279.516    -192.502     235.032
  H     -280.346    -191.916     233.610
  H     -281.209    -192.078     235.121

 3  4  5  6  7  8  9  10  11  12  13  23  28  29  30  31  32 0
 6-311+G(2d,p)
 ****
 33  34 0
 6-311+G(2d,p)
 ****
 1  2  14  15  16  17  18  19  20  21  22  24  25  26 0
 3-21G
 ****
 27  35  36  37  38  39  40  41  42  43  44  45 0
 3-21G
 ****


