%nproc=1
%NoSave
%Mem=1900MB
#P OB98/GEN NMR

erre ene a

0 1
  C     -244.184    1338.270    -107.998
  O     -243.286    1339.182    -108.610
  H     -244.767    1337.785    -108.780
  H     -244.860    1338.792    -107.328
  H     -243.617    1337.505    -107.445
  P     -242.428    1340.183    -107.686
  C     -240.263    1339.697    -108.963
  O     -240.929    1339.590    -107.717
  C     -238.835    1339.179    -108.907
  O     -238.014    1340.113    -108.167
  C     -238.705    1337.796    -108.216
  O     -237.866    1336.949    -108.984
  C     -238.026    1338.125    -106.878
  O     -237.342    1337.007    -106.341
  C     -237.167    1339.329    -107.301
  N     -236.724    1340.140    -106.143
  C     -235.455    1339.803    -105.613
  O     -234.793    1338.872    -106.097
  N     -234.987    1340.506    -104.544
  C     -235.739    1341.409    -103.984
  N     -235.239    1342.055    -102.907
  C     -237.101    1341.760    -104.476
  C     -237.515    1341.078    -105.559
  O     -242.997    1340.394    -106.306
  O     -242.317    1341.522    -108.551
  H     -237.046    1337.232    -105.418
  H     -242.086    1342.283    -107.962
  H     -237.687    1342.505    -103.987
  H     -238.485    1341.262    -105.975
  H     -236.285    1339.000    -107.846
  H     -238.788    1338.442    -106.141
  H     -239.667    1337.304    -108.050
  H     -238.419    1339.132    -109.912
  H     -234.290    1341.800    -102.618
  H     -240.268    1340.748    -109.274
  H     -235.713    1342.796    -102.413
  H     -240.830    1339.098    -109.715
  P     -238.587    1335.663    -109.649
  C     -238.042    1336.090    -112.137
  O     -239.038    1336.055    -111.134
  O     -239.976    1335.584    -108.833
  O     -237.806    1334.392    -109.518
  H     -239.925    1334.896    -108.146
  H     -238.486    1336.365    -113.071
  H     -237.592    1335.123    -112.227
  H     -237.294    1336.808    -111.872

 6  7  8  9  10  11  12  13  14  15  16  26  30  31  32  33  35 0
 6-311+G(2d,p)
 ****
 37  38 0
 6-311+G(2d,p)
 ****
 1  2  3  4  5  17  18  19  20  21  22  23  24  25 0
 3-21G
 ****
 27  28  29  34  36  39  40  41  42  43  44  45  46 0
 3-21G
 ****


