%nproc=1
%NoSave
%Mem=1900MB
#P OB98/GEN NMR

erre ene a

0 1
  C       27.792     180.454    -392.291
  O       29.149     180.553    -391.914
  P       30.327     180.855    -392.948
  C       31.730     181.308    -390.808
  O       31.721     180.823    -392.146
  C       32.992     180.904    -390.032
  O       34.161     181.290    -390.783
  C       33.059     181.662    -388.704
  O       32.351     181.187    -387.576
  C       34.544     181.916    -388.470
  O       35.128     180.966    -387.577
  C       35.151     181.783    -389.866
  N       38.774     185.305    -389.458
  C       38.733     184.034    -388.922
  N       39.691     183.744    -388.013
  N       37.826     183.144    -389.234
  C       36.881     183.615    -390.082
  C       36.824     184.847    -390.688
  C       37.855     185.804    -390.368
  O       37.880     186.969    -390.758
  N       35.681     184.998    -391.431
  C       35.025     183.870    -391.244
  N       35.696     183.017    -390.400
  O       30.093     181.955    -393.932
  O       30.383     179.471    -393.778
  H       34.671     181.039    -386.720
  H       30.624     179.692    -394.698
  H       39.454     185.975    -389.120
  H       34.054     183.640    -391.665
  H       35.967     181.050    -389.865
  H       34.700     182.902    -388.015
  H       40.313     184.448    -387.643
  H       32.630     182.655    -388.885
  H       39.592     182.890    -387.477
  H       33.054     179.817    -389.923
  H       30.832     180.923    -390.313
  H       31.649     182.398    -390.815
  P       31.637     182.082    -386.459
  C       30.667     179.903    -385.536
  O       31.275     181.142    -385.215
  O       30.201     182.420    -387.079
  O       32.359     183.340    -386.104
  H       29.839     183.221    -386.657
  H       30.197     179.494    -384.637
  H       31.431     179.202    -385.887
  H       29.905     180.027    -386.310
  H       27.196     180.247    -391.427
  H       27.676     179.663    -393.002
  H       27.475     181.377    -392.730

 3  4  5  6  7  8  9  10  11  12  23  26  30  31 0
 6-311+G(2d,p)
 ****
 33  35  36  37  38 0
 6-311+G(2d,p)
 ****
 1  2  13  14  15  16  17  18  19  20  21  22  24  25 0
 3-21G
 ****
 27  28  29  32  34  39  40  41  42  43  44  45  46  47  48  49 0
 3-21G
 ****


