%nproc=1
%NoSave
%Mem=1900MB
#P OB98/GEN NMR

erre ene a

0 1
  C      485.848    -382.164     391.191
  O      486.906    -381.535     391.893
  H      484.959    -381.537     391.271
  H      485.627    -383.146     391.622
  H      486.108    -382.269     390.132
  P      488.314    -382.295     391.996
  C      489.551    -380.160     391.199
  O      489.423    -381.157     392.211
  C      490.230    -378.911     391.758
  O      489.310    -378.167     392.586
  C      491.437    -379.197     392.644
  O      492.558    -379.573     391.856
  C      491.572    -377.872     393.377
  O      492.202    -376.882     392.548
  C      490.080    -377.516     393.626
  N      489.608    -377.900     394.948
  C      489.357    -376.850     395.846
  O      489.563    -375.687     395.502
  N      488.898    -377.164     397.107
  C      488.674    -378.399     397.433
  N      488.223    -378.636     398.691
  C      488.887    -379.529     396.503
  C      489.358    -379.221     395.297
  O      488.624    -383.262     390.896
  O      488.254    -383.026     393.421
  H      492.306    -376.083     393.106
  H      487.935    -383.938     393.325
  H      488.668    -380.549     396.818
  H      489.536    -379.989     394.554
  H      489.925    -376.439     393.507
  H      492.176    -377.962     394.286
  H      491.205    -379.978     393.373
  H      490.500    -378.269     390.910
  H      488.071    -377.830     399.282
  H      488.541    -379.917     390.853
  H      487.859    -379.528     399.005
  H      490.123    -380.551     390.350
  P      493.153    -381.056     391.890
  C      493.507    -381.330     389.356
  O      494.137    -381.156     390.622
  O      492.147    -382.148     391.997
  O      494.193    -381.019     393.114
  H      493.702    -381.069     393.984
  H      494.253    -381.383     388.591
  H      492.858    -380.502     389.164
  H      492.937    -382.236     389.363

 6  7  8  9  10  11  12  13  14  15  16  26  30  31  32  33  35 0
 6-311+G(2d,p)
 ****
 37  38 0
 6-311+G(2d,p)
 ****
 1  2  3  4  5  17  18  19  20  21  22  23  24  25 0
 3-21G
 ****
 27  28  29  34  36  39  40  41  42  43  44  45  46 0
 3-21G
 ****


