%nproc=1
%NoSave
%Mem=1900MB
#P OB98/GEN NMR

erre ene a

0 1
  C     -304.276    -201.293     727.898
  O     -303.076    -201.087     728.615
  H     -304.426    -200.460     727.205
  H     -305.135    -201.334     728.581
  H     -304.223    -202.223     727.327
  P     -302.718    -202.092     729.806
  C     -301.180    -200.401     731.031
  O     -302.384    -201.166     731.071
  C     -301.045    -199.564     732.298
  O     -302.060    -198.537     732.337
  C     -301.220    -200.378     733.576
  O     -300.072    -201.148     733.845
  C     -301.534    -199.281     734.575
  O     -300.336    -198.618     735.003
  C     -302.420    -198.320     733.727
  N     -303.834    -198.529     733.940
  C     -304.362    -197.992     735.128
  O     -303.640    -197.385     735.906
  N     -305.699    -198.186     735.390
  C     -306.446    -198.840     734.555
  N     -307.755    -198.997     734.883
  C     -305.945    -199.409     733.289
  C     -304.642    -199.229     733.061
  O     -301.679    -203.140     729.520
  O     -304.136    -202.736     730.195
  H     -299.853    -199.264     735.561
  H     -304.301    -203.546     729.662
  H     -306.598    -199.938     732.623
  H     -304.189    -199.606     732.151
  H     -302.176    -197.279     733.958
  H     -302.041    -199.669     735.466
  H     -302.112    -201.018     733.487
  H     -300.064    -199.068     732.283
  H     -308.070    -198.593     735.772
  H     -301.244    -199.745     730.150
  H     -308.455    -199.402     734.269
  H     -300.303    -201.053     730.910
  P     -300.192    -202.729     734.146
  C     -298.077    -202.804     735.629
  O     -299.490    -202.935     735.584
  O     -299.707    -203.621     733.059
  O     -301.755    -202.904     734.477
  H     -302.302    -202.862     733.662
  H     -297.736    -202.962     736.631
  H     -297.800    -201.822     735.309
  H     -297.631    -203.530     734.982

 6  7  8  9  10  11  12  13  14  15  16  26  30  31  32  33  35 0
 6-311+G(2d,p)
 ****
 37  38 0
 6-311+G(2d,p)
 ****
 1  2  3  4  5  17  18  19  20  21  22  23  24  25 0
 3-21G
 ****
 27  28  29  34  36  39  40  41  42  43  44  45  46 0
 3-21G
 ****


