%nproc=1
%NoSave
%Mem=1900MB
#P OB98/GEN NMR

erre ene a

0 1
  C       59.241     704.160    -119.985
  O       57.889     704.501    -120.233
  P       57.388     706.016    -120.076
  C       56.056     706.537    -117.866
  O       57.300     706.360    -118.516
  C       55.546     705.170    -117.389
  O       56.570     704.488    -116.639
  C       54.324     705.313    -116.484
  O       53.123     705.174    -117.238
  C       54.528     704.206    -115.477
  O       54.085     702.934    -116.007
  C       56.069     704.215    -115.306
  N       56.661     705.202    -114.379
  C       56.966     704.826    -113.080
  O       56.796     703.688    -112.634
  N       57.462     705.821    -112.279
  C       57.709     707.111    -112.653
  O       57.911     708.039    -111.882
  C       57.620     707.371    -114.101
  C       57.089     706.429    -114.887
  O       55.850     705.933    -120.518
  O       58.144     707.032    -120.870
  H       54.311     702.261    -115.338
  H       55.743     706.226    -121.446
  H       57.544     705.602    -111.283
  H       57.937     708.333    -114.470
  H       56.988     706.606    -115.948
  H       56.436     703.223    -115.003
  H       53.930     704.377    -114.570
  H       54.347     706.281    -115.966
  H       55.297     704.557    -118.267
  H       55.335     706.997    -118.550
  H       56.168     707.217    -117.015
  P       51.756     705.799    -116.679
  C       50.379     703.691    -116.169
  O       51.198     704.715    -115.630
  O       50.773     706.251    -117.714
  O       52.257     707.015    -115.760
  H       52.201     707.853    -116.257
  H       50.219     702.935    -115.399
  H       50.849     703.227    -117.034
  H       49.407     704.121    -116.463
  H       59.379     703.111    -120.142
  H       59.491     704.406    -118.974
  H       59.875     704.706    -120.652

 3  4  5  6  7  8  9  10  11  12  13  23  28  29  30  31  32 0
 6-311+G(2d,p)
 ****
 33  34 0
 6-311+G(2d,p)
 ****
 1  2  14  15  16  17  18  19  20  21  22  24  25  26  27 0
 3-21G
 ****
 35  36  37  38  39  40  41  42  43  44  45 0
 3-21G
 ****


