%nproc=1
%NoSave
%Mem=1900MB
#P OB98/GEN NMR

erre ene a

0 1
  C      430.326    -375.101    -301.348
  O      430.878    -374.068    -302.181
  P      431.186    -374.419    -303.714
  C      430.781    -372.112    -304.847
  O      431.722    -373.098    -304.445
  C      431.489    -370.789    -305.170
  O      432.058    -370.191    -303.988
  C      432.645    -370.943    -306.141
  O      432.199    -370.986    -307.491
  C      433.421    -369.657    -305.884
  O      432.791    -368.562    -306.585
  C      433.253    -369.478    -304.367
  N      437.339    -368.256    -301.523
  C      436.440    -367.490    -302.175
  N      435.394    -367.894    -302.927
  C      435.307    -369.233    -302.950
  C      436.145    -370.142    -302.330
  C      437.211    -369.605    -301.581
  N      438.122    -370.384    -300.909
  N      435.746    -371.438    -302.588
  C      434.679    -371.309    -303.350
  N      434.377    -370.004    -303.601
  O      429.721    -374.613    -304.340
  O      432.022    -375.640    -303.901
  H      433.254    -367.748    -306.298
  H      429.746    -375.307    -305.030
  H      436.575    -366.420    -302.092
  H      434.088    -372.141    -303.726
  H      433.127    -368.429    -304.088
  H      434.449    -369.704    -306.239
  H      433.271    -371.810    -305.881
  H      430.744    -370.099    -305.593
  H      430.039    -371.951    -304.060
  H      438.840    -369.927    -300.369
  H      438.012    -371.389    -300.939
  H      430.226    -372.482    -305.720
  P      432.379    -372.368    -308.283
  C      430.120    -372.391    -309.564
  O      431.527    -372.223    -309.623
  O      431.546    -373.401    -307.397
  O      433.797    -372.798    -308.444
  H      431.931    -374.297    -307.461
  H      429.671    -371.965    -310.464
  H      429.697    -371.894    -308.686
  H      429.891    -373.465    -309.522
  H      430.176    -374.720    -300.359
  H      431.002    -375.930    -301.312
  H      429.389    -375.423    -301.752

 3  4  5  6  7  8  9  10  11  12  22  25  29  30  31  32 0
 6-311+G(2d,p)
 ****
 33  36  37 0
 6-311+G(2d,p)
 ****
 1  2  13  14  15  16  17  18  19  20  21  23  24  26 0
 3-21G
 ****
 27  28  34  35  38  39  40  41  42  43  44  45  46  47  48 0
 3-21G
 ****


