%nproc=1
%NoSave
%Mem=1900MB
#P OB98/GEN NMR

erre ene a

0 1
  C     -319.004     216.712     293.438
  O     -319.799     216.181     292.399
  H     -319.593     216.731     294.360
  H     -318.705     217.738     293.198
  H     -318.115     216.094     293.603
  P     -319.081     215.911     290.987
  C     -320.728     217.092     289.353
  O     -320.250     215.861     289.888
  C     -322.172     216.946     288.862
  O     -323.046     216.828     290.017
  C     -322.653     218.127     288.021
  O     -323.483     217.622     286.966
  C     -323.504     218.928     288.989
  O     -324.486     219.731     288.328
  C     -324.071     217.833     289.898
  N     -324.460     218.362     291.197
  C     -325.812     218.672     291.364
  O     -326.608     218.508     290.443
  N     -326.228     219.226     292.562
  C     -325.346     219.515     293.469
  N     -325.812     220.088     294.616
  C     -323.899     219.267     293.312
  C     -323.536     218.695     292.164
  O     -318.615     214.385     291.094
  O     -317.957     216.831     290.659
  H     -325.027     220.182     289.013
  H     -317.792     214.234     290.588
  H     -323.203     219.554     294.081
  H     -322.488     218.475     291.954
  H     -324.944     217.360     289.427
  H     -322.863     219.611     289.568
  H     -321.840     218.716     287.591
  H     -322.247     216.001     288.297
  H     -326.807     220.251     294.680
  H     -320.092     217.381     288.511
  H     -325.214     220.396     295.370
  H     -320.664     217.868     290.121
  P     -323.037     218.001     285.468
  C     -325.531     217.850     284.726
  O     -324.189     217.471     284.464
  O     -321.811     217.016     285.185
  O     -322.664     219.435     285.293
  H     -320.979     217.524     285.176
  H     -326.173     217.426     283.982
  H     -325.612     218.917     284.701
  H     -325.820     217.493     285.692

 6  7  8  9  10  11  12  13  14  15  16  26  30  31  32  33  35 0
 6-311+G(2d,p)
 ****
 37  38 0
 6-311+G(2d,p)
 ****
 1  2  3  4  5  17  18  19  20  21  22  23  24  25 0
 3-21G
 ****
 27  28  29  34  36  39  40  41  42  43  44  45  46 0
 3-21G
 ****


