%nproc=1
%NoSave
%Mem=1900MB
#P OB98/GEN NMR

erre ene a

0 1
  C      315.067    -884.779     500.078
  O      316.299    -884.133     500.324
  H      314.999    -885.650     500.728
  H      315.020    -885.113     499.036
  H      314.227    -884.111     500.293
  P      316.587    -882.724     499.610
  C      317.846    -880.573     500.293
  O      317.712    -881.981     500.478
  C      318.443    -879.944     501.550
  O      317.520    -880.059     502.658
  C      319.728    -880.612     502.023
  O      320.827    -880.223     501.219
  C      319.791    -880.122     503.463
  O      320.319    -878.787     503.535
  C      318.299    -880.153     503.872
  N      317.944    -881.348     504.634
  C      318.628    -881.544     505.826
  O      319.523    -880.798     506.220
  N      318.277    -882.661     506.540
  C      317.410    -883.637     506.130
  O      317.200    -884.662     506.768
  C      316.732    -883.377     504.852
  C      317.024    -882.275     504.180
  O      315.387    -881.899     499.291
  O      317.383    -883.138     498.278
  H      321.207    -878.820     503.139
  H      316.787    -883.060     497.507
  H      318.779    -882.835     507.401
  H      316.024    -884.121     504.502
  H      316.536    -882.071     503.230
  H      318.057    -879.275     504.470
  H      320.428    -880.758     504.080
  H      319.620    -881.701     502.018
  H      318.605    -878.874     501.352
  H      316.850    -880.150     500.108
  H      318.482    -880.386     499.421
  P      322.159    -881.116     501.202
  C      324.197    -881.198     499.639
  O      322.787    -881.023     499.727
  O      322.006    -882.502     501.730
  O      323.198    -880.282     502.084
  H      323.463    -880.818     502.853
  H      324.503    -881.117     498.617
  H      324.461    -882.165     500.014
  H      324.687    -880.444     500.219

 6  7  8  9  10  11  12  13  14  15  16  26  31  32  33  34  35 0
 6-311+G(2d,p)
 ****
 36  37 0
 6-311+G(2d,p)
 ****
 1  2  3  4  5  17  18  19  20  21  22  23  24  25 0
 3-21G
 ****
 27  28  29  30  38  39  40  41  42  43  44  45 0
 3-21G
 ****


