%nproc=1
%NoSave
%Mem=1900MB
#P OB98/GEN NMR

erre ene a

0 1
  C      -96.987    -730.777     186.428
  O      -97.340    -731.695     185.416
  H      -97.213    -729.765     186.082
  H      -95.917    -730.839     186.651
  H      -97.569    -730.973     187.334
  P      -96.962    -733.241     185.603
  C      -95.959    -733.647     183.267
  O      -97.045    -733.912     184.148
  C      -96.227    -734.248     181.882
  O      -96.609    -735.643     182.045
  C      -97.350    -733.541     181.109
  O      -96.993    -733.506     179.725
  C      -98.535    -734.452     181.335
  O      -99.514    -734.302     180.322
  C      -97.879    -735.836     181.403
  N      -98.716    -736.791     182.120
  C      -99.653    -737.504     181.357
  O      -99.726    -737.312     180.139
  N     -100.526    -738.346     181.987
  C     -100.510    -738.439     183.284
  N     -101.422    -739.272     183.852
  C      -99.556    -737.694     184.133
  C      -98.702    -736.902     183.493
  O      -97.703    -733.973     186.673
  O      -95.385    -733.209     185.901
  H      -99.059    -734.229     179.445
  H      -95.224    -733.150     186.863
  H      -99.587    -737.803     185.209
  H      -97.973    -736.300     184.037
  H      -97.684    -736.224     180.394
  H      -99.012    -734.214     182.297
  H      -97.536    -732.518     181.469
  H      -95.294    -734.238     181.308
  H     -102.079    -739.744     183.226
  H      -95.057    -734.100     183.697
  H     -101.535    -739.392     184.847
  H      -95.805    -732.568     183.179
  P      -96.845    -732.104     178.953
  C      -98.529    -732.800     177.168
  O      -97.216    -732.320     177.402
  O      -95.545    -731.398     179.187
  O      -98.068    -731.230     179.510
  H      -97.820    -730.285     179.497
  H      -98.685    -732.913     176.115
  H      -99.239    -732.103     177.561
  H      -98.654    -733.747     177.650

 6  7  8  9  10  11  12  13  14  15  16  26  30  31  32  33  35 0
 6-311+G(2d,p)
 ****
 37  38 0
 6-311+G(2d,p)
 ****
 1  2  3  4  5  17  18  19  20  21  22  23  24  25 0
 3-21G
 ****
 27  28  29  34  36  39  40  41  42  43  44  45  46 0
 3-21G
 ****


