%nproc=1
%NoSave
%Mem=1900MB
#P OB98/GEN NMR

erre ene a

0 1
  C     -513.580     117.455    1011.585
  O     -514.195     117.822    1010.373
  P     -514.947     116.664    1009.547
  C     -517.327     117.713    1009.742
  O     -516.467     116.627    1010.064
  C     -518.386     117.268    1008.743
  O     -519.075     116.090    1009.213
  C     -519.480     118.295    1008.465
  O     -518.992     119.333    1007.623
  C     -520.535     117.403    1007.842
  O     -520.215     117.150    1006.462
  C     -520.417     116.126    1008.666
  N     -525.341     115.416    1009.868
  C     -524.719     115.459    1008.687
  N     -523.408     115.679    1008.441
  C     -522.717     115.841    1009.586
  C     -523.244     115.843    1010.881
  C     -524.617     115.620    1010.997
  N     -525.275     115.564    1012.222
  N     -522.245     116.068    1011.795
  C     -521.155     116.191    1011.100
  N     -521.377     116.056    1009.749
  O     -514.319     115.323    1010.159
  O     -514.780     116.737    1008.066
  H     -520.747     116.385    1006.178
  H     -514.238     114.626    1009.476
  H     -525.340     115.304    1007.796
  H     -520.166     116.386    1011.492
  H     -520.534     115.217    1008.065
  H     -521.545     117.858    1007.867
  H     -519.845     118.730    1009.410
  H     -517.855     117.006    1007.794
  H     -516.741     118.522    1009.309
  H     -526.276     115.541    1012.206
  H     -524.755     115.848    1013.045
  H     -517.795     118.085    1010.671
  P     -519.144     120.854    1008.171
  C     -516.735     120.755    1009.026
  O     -518.092     120.942    1009.366
  O     -520.551     120.773    1008.942
  O     -519.044     121.906    1007.115
  H     -520.594     119.989    1009.537
  H     -516.117     120.901    1009.915
  H     -516.432     121.473    1008.264
  H     -516.573     119.735    1008.640
  H     -513.121     118.315    1012.027
  H     -512.835     116.711    1011.396
  H     -514.316     117.061    1012.254

 3  4  5  6  7  8  9  10  11  12  22  25  29  30  31  32 0
 6-311+G(2d,p)
 ****
 33  36  37 0
 6-311+G(2d,p)
 ****
 1  2  13  14  15  16  17  18  19  20  21  23  24  26 0
 3-21G
 ****
 27  28  34  35  38  39  40  41  42  43  44  45  46  47  48 0
 3-21G
 ****


