%nproc=1
%NoSave
%Mem=1900MB
#P OB98/GEN NMR

erre ene a

0 1
  C      172.062     -66.007    -194.239
  O      171.983     -65.891    -192.834
  H      171.056     -66.164    -194.635
  H      172.680     -66.869    -194.505
  H      172.477     -65.101    -194.689
  P      173.263     -65.370    -192.025
  C      173.412     -67.554    -190.662
  O      173.258     -66.143    -190.619
  C      173.348     -68.154    -189.255
  O      172.027     -67.896    -188.695
  C      173.576     -69.673    -189.213
  O      174.195     -69.977    -187.956
  C      172.155     -70.199    -189.242
  O      172.091     -71.542    -188.815
  C      171.451     -69.172    -188.352
  N      169.999     -69.185    -188.522
  C      169.239     -69.316    -187.368
  O      169.730     -69.450    -186.246
  N      167.881     -69.333    -187.539
  C      167.230     -69.299    -188.738
  O      166.010     -69.351    -188.836
  C      168.087     -69.204    -189.929
  C      169.413     -69.149    -189.772
  O      173.405     -63.888    -191.922
  O      174.506     -66.035    -192.783
  H      172.655     -72.107    -189.387
  H      175.292     -65.459    -192.711
  H      167.315     -69.419    -186.710
  H      167.602     -69.184    -190.897
  H      170.070     -69.079    -190.630
  H      171.668     -69.364    -187.291
  H      171.750     -70.161    -190.260
  H      174.187     -70.040    -190.040
  H      174.069     -67.629    -188.616
  H      174.386     -67.773    -191.115
  H      172.625     -67.988    -191.287
  P      175.622     -70.706    -187.861
  C      174.963     -72.229    -185.891
  O      175.846     -71.210    -186.354
  O      176.757     -69.903    -188.412
  O      175.440     -72.066    -188.685
  H      176.299     -72.346    -189.056
  H      175.208     -72.481    -184.880
  H      175.064     -73.096    -186.509
  H      173.954     -71.874    -185.936

 6  7  8  9  10  11  12  13  14  15  16  26  31  32  33  34  35 0
 6-311+G(2d,p)
 ****
 36  37 0
 6-311+G(2d,p)
 ****
 1  2  3  4  5  17  18  19  20  21  22  23  24  25 0
 3-21G
 ****
 27  28  29  30  38  39  40  41  42  43  44  45 0
 3-21G
 ****


