%nproc=1
%NoSave
%Mem=1900MB
#P OB98/GEN NMR

erre ene a

0 1
  C     -821.821     138.528     988.717
  O     -822.311     139.644     988.003
  H     -822.370     138.436     989.656
  H     -820.759     138.651     988.935
  H     -821.973     137.612     988.131
  P     -821.551     140.010     986.636
  C     -823.017     138.137     985.560
  O     -821.716     138.678     985.748
  C     -823.438     138.299     984.099
  O     -822.576     137.532     983.235
  C     -824.863     137.817     983.791
  O     -825.863     138.716     984.202
  C     -824.778     137.714     982.280
  O     -824.819     139.032     981.709
  C     -823.385     137.075     982.110
  N     -823.421     135.608     982.074
  C     -822.647     134.988     981.081
  O     -821.989     135.660     980.284
  N     -822.682     133.618     980.986
  C     -823.384     132.919     981.811
  N     -823.375     131.562     981.664
  C     -824.202     133.528     982.879
  C     -824.172     134.855     982.957
  O     -820.009     139.971     987.047
  O     -821.984     141.273     985.959
  H     -824.583     138.945     980.776
  H     -819.440     140.040     986.238
  H     -824.788     132.913     983.549
  H     -824.735     135.376     983.715
  H     -822.888     137.432     981.185
  H     -825.598     137.141     981.843
  H     -825.039     136.812     984.204
  H     -823.322     139.357     983.832
  H     -822.862     131.178     980.889
  H     -823.712     138.672     986.217
  H     -824.010     130.958     982.171
  H     -823.029     137.077     985.820
  P     -827.120     138.111     985.005
  C     -826.906     139.771     987.001
  O     -826.880     138.419     986.562
  O     -826.879     136.531     984.904
  O     -828.457     138.508     984.472
  H     -827.726     136.048     984.844
  H     -826.731     139.807     988.056
  H     -827.863     140.198     986.784
  H     -826.144     140.325     986.494

 6  7  8  9  10  11  12  13  14  15  16  26  30  31  32  33  35 0
 6-311+G(2d,p)
 ****
 37  38 0
 6-311+G(2d,p)
 ****
 1  2  3  4  5  17  18  19  20  21  22  23  24  25 0
 3-21G
 ****
 27  28  29  34  36  39  40  41  42  43  44  45  46 0
 3-21G
 ****


