%nproc=1
%NoSave
%Mem=1900MB
#P OB98/GEN NMR

erre ene a

0 1
  C      142.956    -261.285    -295.653
  O      141.941    -261.362    -296.668
  P      140.389    -261.290    -296.242
  C      138.174    -260.329    -297.259
  O      139.576    -260.528    -297.395
  C      137.708    -259.171    -298.145
  O      138.283    -257.924    -297.681
  C      138.133    -259.279    -299.604
  O      137.340    -260.209    -300.319
  C      137.962    -257.844    -300.073
  O      136.593    -257.575    -300.418
  C      138.377    -257.046    -298.818
  N      139.711    -256.456    -298.934
  C      139.848    -255.409    -299.833
  O      138.940    -255.011    -300.559
  N      141.099    -254.841    -299.905
  C      142.217    -255.264    -299.221
  O      143.304    -254.729    -299.343
  C      142.017    -256.434    -298.344
  C      140.795    -256.968    -298.244
  O      140.419    -260.197    -295.070
  O      139.795    -262.570    -295.755
  H      136.365    -258.202    -301.138
  H      139.687    -260.364    -294.456
  H      141.217    -254.067    -300.524
  H      142.877    -256.813    -297.809
  H      140.639    -257.831    -297.599
  H      137.657    -256.232    -298.631
  H      138.569    -257.612    -300.965
  H      139.187    -259.555    -299.663
  H      136.616    -259.100    -298.060
  H      137.945    -260.103    -296.210
  H      137.659    -261.255    -297.544
  P      138.109    -261.452    -300.983
  C      137.258    -263.330    -302.594
  O      137.110    -262.012    -302.111
  O      138.038    -262.527    -299.799
  O      139.489    -261.113    -301.445
  H      137.218    -262.445    -299.276
  H      137.622    -264.004    -301.825
  H      137.964    -263.324    -303.444
  H      136.276    -263.685    -302.955
  H      143.922    -261.348    -296.109
  H      142.833    -262.094    -294.964
  H      142.868    -260.355    -295.131

 3  4  5  6  7  8  9  10  11  12  13  23  28  29  30  31  32 0
 6-311+G(2d,p)
 ****
 33  34 0
 6-311+G(2d,p)
 ****
 1  2  14  15  16  17  18  19  20  21  22  24  25  26 0
 3-21G
 ****
 27  35  36  37  38  39  40  41  42  43  44  45 0
 3-21G
 ****


