%nproc=1
%NoSave
%Mem=1900MB
#P OB98/GEN NMR

erre ene a

0 1
  C      -87.930     143.103    -432.893
  O      -89.063     143.939    -432.743
  H      -88.033     142.543    -433.827
  H      -87.857     142.390    -432.064
  H      -87.021     143.706    -432.945
  P      -89.278     144.672    -431.329
  C      -90.438     146.681    -432.469
  O      -90.566     145.615    -431.529
  C      -91.590     146.651    -433.482
  O      -91.295     145.714    -434.543
  C      -92.914     146.188    -432.894
  O      -93.493     147.106    -431.982
  C      -93.690     145.765    -434.130
  O      -94.381     146.837    -434.765
  C      -92.556     145.244    -435.056
  N      -92.584     143.794    -435.200
  C      -93.253     143.307    -436.320
  O      -93.813     144.028    -437.151
  N      -93.293     141.947    -436.448
  C      -92.784     141.046    -435.549
  O      -92.891     139.826    -435.696
  C      -92.114     141.617    -434.374
  C      -92.047     142.951    -434.253
  O      -88.078     145.392    -430.779
  O      -89.820     143.507    -430.376
  H      -94.863     147.323    -434.067
  H      -89.739     143.759    -429.423
  H      -93.758     141.567    -437.256
  H      -91.706     140.938    -433.635
  H      -91.559     143.402    -433.391
  H      -92.666     145.679    -436.064
  H      -94.440     145.002    -433.892
  H      -92.723     145.274    -432.318
  H      -91.679     147.651    -433.927
  H      -89.490     146.544    -433.000
  H      -90.420     147.640    -431.944
  P      -94.329     146.657    -430.699
  C      -93.975     148.823    -429.313
  O      -94.900     147.978    -429.981
  O      -93.730     145.576    -429.848
  O      -95.657     146.040    -431.381
  H      -95.960     145.292    -430.825
  H      -94.495     149.655    -428.887
  H      -93.247     149.178    -430.012
  H      -93.486     148.273    -428.537

 6  7  8  9  10  11  12  13  14  15  16  26  31  32  33  34  35 0
 6-311+G(2d,p)
 ****
 36  37 0
 6-311+G(2d,p)
 ****
 1  2  3  4  5  17  18  19  20  21  22  23  24  25 0
 3-21G
 ****
 27  28  29  30  38  39  40  41  42  43  44  45 0
 3-21G
 ****


