%nproc=1
%NoSave
%Mem=1900MB
#P OB98/GEN NMR

erre ene a

0 1
  C     -261.216     499.552    -186.763
  O     -261.179     500.402    -187.887
  H     -260.238     499.568    -186.279
  H     -261.433     498.526    -187.078
  H     -261.972     499.889    -186.048
  P     -262.559     500.658    -188.668
  C     -261.697     499.237    -190.662
  O     -262.243     500.472    -190.233
  C     -261.019     499.398    -192.026
  O     -262.039     499.653    -193.028
  C     -260.015     500.549    -192.080
  O     -258.899     500.146    -192.884
  C     -260.768     501.657    -192.784
  O     -259.903     502.585    -193.441
  C     -261.685     500.862    -193.723
  N     -262.863     501.635    -194.104
  C     -262.707     502.528    -195.170
  O     -261.615     502.647    -195.730
  N     -263.766     503.315    -195.541
  C     -264.868     503.275    -194.843
  N     -265.877     504.100    -195.240
  C     -265.052     502.396    -193.673
  C     -264.023     501.604    -193.369
  O     -262.779     502.236    -188.522
  O     -263.725     499.871    -188.177
  H     -259.430     502.113    -194.159
  H     -263.731     502.458    -188.489
  H     -265.976     502.417    -193.112
  H     -264.062     500.935    -192.518
  H     -261.142     500.572    -194.636
  H     -261.368     502.218    -192.054
  H     -259.651     500.854    -191.093
  H     -260.546     498.446    -192.291
  H     -265.704     504.699    -196.039
  H     -262.504     498.503    -190.752
  H     -266.755     504.183    -194.749
  H     -260.977     498.877    -189.919
  P     -257.684     499.428    -192.125
  C     -256.545     501.750    -191.846
  O     -256.398     500.390    -192.224
  O     -257.315     498.203    -193.084
  O     -258.025     498.970    -190.745
  H     -257.596     497.366    -192.675
  H     -255.610     502.257    -191.966
  H     -256.851     501.805    -190.822
  H     -257.284     502.214    -192.465

 6  7  8  9  10  11  12  13  14  15  16  26  30  31  32  33  35 0
 6-311+G(2d,p)
 ****
 37  38 0
 6-311+G(2d,p)
 ****
 1  2  3  4  5  17  18  19  20  21  22  23  24  25 0
 3-21G
 ****
 27  28  29  34  36  39  40  41  42  43  44  45  46 0
 3-21G
 ****


