%nproc=1
%NoSave
%Mem=1900MB
#P OB98/GEN NMR

erre ene a

0 1
  C       43.925    -142.996     171.991
  O       44.605    -142.922     170.754
  H       43.695    -141.980     172.326
  H       44.563    -143.475     172.740
  H       42.988    -143.551     171.893
  P       44.823    -144.266     169.908
  C       42.683    -144.523     168.490
  O       44.030    -144.072     168.525
  C       41.874    -143.733     167.458
  O       41.901    -142.320     167.831
  C       42.421    -143.835     166.017
  O       41.299    -143.747     165.128
  C       43.279    -142.586     165.941
  O       43.640    -142.279     164.620
  C       42.365    -141.597     166.671
  N       43.033    -140.358     167.050
  C       42.769    -139.228     166.279
  O       41.994    -139.216     165.324
  N       43.443    -138.091     166.643
  C       44.335    -137.980     167.668
  O       44.895    -136.930     167.962
  C       44.597    -139.216     168.426
  C       43.943    -140.329     168.088
  O       44.534    -145.539     170.628
  O       46.356    -144.179     169.454
  H       46.907    -144.712     170.058
  H       44.028    -141.380     164.571
  H       43.262    -137.263     166.096
  H       45.316    -139.164     169.232
  H       44.111    -141.259     168.622
  H       41.485    -141.361     166.064
  H       44.211    -142.733     166.493
  H       42.963    -144.767     165.833
  H       40.826    -144.051     167.506
  H       42.249    -144.387     169.486
  H       42.667    -145.591     168.237
  P       40.974    -144.852     164.009
  C       40.469    -147.102     165.166
  O       39.925    -145.916     164.603
  O       42.192    -145.486     163.419
  O       40.138    -144.083     162.880
  H       40.374    -144.443     162.001
  H       39.675    -147.724     165.524
  H       41.116    -146.847     165.979
  H       41.026    -147.629     164.419

 6  7  8  9  10  11  12  13  14  15  16  27  31  32  33  34  35 0
 6-311+G(2d,p)
 ****
 36  37 0
 6-311+G(2d,p)
 ****
 1  2  3  4  5  17  18  19  20  21  22  23  24  25 0
 3-21G
 ****
 26  28  29  30  38  39  40  41  42  43  44  45 0
 3-21G
 ****


