%nproc=1
%NoSave
%Mem=1900MB
#P OB98/GEN NMR

erre ene a

0 1
  C      522.731    -283.917     472.183
  O      522.997    -285.291     472.439
  H      523.508    -283.294     472.641
  H      522.723    -283.748     471.102
  H      521.752    -283.644     472.598
  P      523.083    -285.742     473.961
  C      520.873    -287.091     473.828
  O      521.587    -286.046     474.458
  C      520.470    -288.158     474.848
  O      519.516    -287.547     475.764
  C      519.812    -289.420     474.239
  O      520.551    -290.581     474.614
  C      518.436    -289.479     474.887
  O      518.046    -290.807     475.250
  C      518.580    -288.581     476.113
  N      514.428    -289.385     478.947
  C      515.664    -289.895     479.042
  N      516.760    -289.568     478.324
  C      516.479    -288.573     477.448
  C      515.259    -287.938     477.275
  C      514.193    -288.411     478.049
  N      512.900    -287.917     477.928
  N      515.350    -286.962     476.282
  C      516.582    -287.048     475.842
  N      517.304    -288.021     476.515
  O      523.467    -284.389     474.736
  O      524.068    -286.829     474.247
  H      517.319    -290.706     475.900
  H      524.216    -284.562     475.351
  H      515.814    -290.681     479.776
  H      517.011    -286.483     475.016
  H      518.994    -289.137     476.977
  H      517.700    -289.063     474.193
  H      519.730    -289.363     473.136
  H      521.347    -288.424     475.437
  H      521.522    -287.559     473.063
  H      512.172    -288.367     478.463
  H      512.700    -287.257     477.190
  H      519.990    -286.675     473.317
  P      521.341    -291.348     473.433
  C      523.747    -290.464     473.945
  O      522.618    -290.452     473.062
  O      520.376    -291.141     472.157
  O      521.619    -292.779     473.716
  H      520.500    -291.875     471.546
  H      524.509    -289.820     473.559
  H      524.128    -291.461     474.023
  H      523.447    -290.120     474.913

 6  7  8  9  10  11  12  13  14  15  25  28  32  33  34  35 0
 6-311+G(2d,p)
 ****
 36  39  40 0
 6-311+G(2d,p)
 ****
 1  2  3  4  5  16  17  18  19  20  21  22  23  24 0
 3-21G
 ****
 26  27  29  30  31  37  38  41  42  43  44  45  46  47  48 0
 3-21G
 ****


