%nproc=1
%NoSave
%Mem=1900MB
#P OB98/GEN NMR

erre ene a

0 1
  C        8.590     -44.591       0.961
  O        9.630     -45.061       1.806
  P       11.135     -44.640       1.441
  C       11.814     -46.879       0.338
  O       11.546     -45.497       0.146
  C       13.287     -47.186       0.093
  O       13.611     -48.461       0.712
  C       13.673     -47.283      -1.392
  O       14.917     -46.600      -1.603
  C       13.922     -48.767      -1.598
  O       14.816     -49.014      -2.678
  C       14.466     -49.151      -0.222
  N       17.360     -53.289      -0.173
  C       17.724     -51.959      -0.252
  N       19.042     -51.703      -0.396
  N       16.873     -50.968      -0.199
  C       15.591     -51.373      -0.023
  C       15.107     -52.656       0.077
  C       16.055     -53.745      -0.043
  O       15.785     -54.943      -0.071
  N       13.749     -52.665       0.267
  C       13.409     -51.391       0.278
  N       14.485     -50.568       0.057
  O       11.986     -45.304       2.622
  O       11.383     -43.174       1.353
  H       15.043     -49.963      -2.650
  H       12.516     -44.619       3.072
  H       18.055     -54.013      -0.237
  H       12.400     -51.020       0.409
  H       15.488     -48.771      -0.094
  H       12.971     -49.265      -1.811
  H       19.753     -52.416      -0.407
  H       12.916     -46.891      -2.080
  H       19.331     -50.734      -0.432
  H       13.892     -46.422       0.599
  H       11.204     -47.464      -0.360
  H       11.539     -47.154       1.361
  P       15.087     -45.867      -3.022
  C       17.680     -46.075      -2.893
  O       16.492     -46.366      -3.604
  O       15.358     -44.342      -2.621
  O       13.910     -46.021      -3.928
  H       15.099     -43.747      -3.350
  H       17.476     -45.657      -1.902
  H       18.270     -45.353      -3.465
  H       18.259     -46.994      -2.776
  H        7.648     -44.947       1.323
  H        8.749     -44.951      -0.034
  H        8.589     -43.521       0.958

 3  4  5  6  7  8  9  10  11  12  23  26  30  31  33  0
 6-311+G(2d,p)
 ****
 35  36  37  38 0
 6-311+G(2d,p)
 ****
 1  2  13  14  15  16  17  18  19  20  21  22  24  25  27  28  29 0
 3-21G
 ****
 32  34  39  40  41  42  43  44  45  46  47  48  49 0
 3-21G
 ****


