%nproc=1
%NoSave
%Mem=1900MB
#P OB98/GEN NMR

erre ene a

0 1
  C      187.926     416.879     191.849
  O      188.927     415.922     192.164
  P      188.893     414.527     191.357
  C      186.360     414.052     191.712
  O      187.700     413.657     191.984
  C      185.364     412.959     192.118
  O      184.021     413.387     191.760
  C      185.610     411.600     191.428
  O      185.253     410.590     192.383
  C      184.616     411.647     190.269
  O      184.344     410.379     189.694
  C      183.446     412.332     190.952
  N      178.942     411.574     188.633
  C      179.595     410.863     189.587
  N      180.796     411.137     190.172
  C      181.311     412.275     189.675
  C      180.770     413.099     188.681
  C      179.522     412.706     188.158
  N      178.862     413.426     187.177
  N      181.602     414.164     188.429
  C      182.631     413.991     189.230
  N      182.490     412.890     190.013
  O      190.211     413.776     191.887
  O      188.885     414.657     189.864
  H      185.078     410.119     189.114
  H      190.654     413.288     191.175
  H      179.085     409.966     189.934
  H      183.502     414.633     189.276
  H      182.904     411.658     191.635
  H      185.028     412.280     189.471
  H      186.647     411.441     191.111
  H      185.394     412.842     193.201
  H      186.250     414.241     190.640
  H      178.088     412.959     186.727
  H      179.397     414.138     186.693
  H      186.142     414.997     192.232
  P      186.408     409.884     193.234
  C      186.015     407.687     191.946
  O      186.019     408.318     193.218
  O      185.997     410.304     194.723
  O      187.824     410.245     192.857
  H      185.057     410.106     194.905
  H      185.829     406.630     192.093
  H      186.979     407.825     191.451
  H      185.210     408.103     191.327
  H      188.064     417.751     192.453
  H      186.960     416.461     192.042
  H      188.000     417.145     190.815

 3  4  5  6  7  8  9  10  11  12  22  25  29  30  31  32 0
 6-311+G(2d,p)
 ****
 33  36  37 0
 6-311+G(2d,p)
 ****
 1  2  13  14  15  16  17  18  19  20  21  23  24  26 0
 3-21G
 ****
 27  28  34  35  38  39  40  41  42  43  44  45  46  47  48 0
 3-21G
 ****


