%nproc=1
%NoSave
%Mem=1900MB
#P OB98/GEN NMR

erre ene a

0 1
  C       41.042      44.155     -72.994
  O       40.778      42.765     -72.999
  P       41.789      41.764     -73.730
  C       42.310      41.016     -76.133
  O       41.457      41.792     -75.298
  C       41.777      40.995     -77.564
  O       40.709      40.033     -77.688
  C       41.188      42.323     -78.025
  O       42.212      43.245     -78.343
  C       40.343      41.873     -79.210
  O       41.157      41.718     -80.384
  C       39.827      40.508     -78.731
  N       34.948      39.587     -79.897
  C       36.069      39.582     -80.648
  N       37.332      39.878     -80.272
  C       37.366      40.227     -78.975
  C       36.301      40.313     -78.093
  C       35.041      39.947     -78.595
  N       33.900      39.888     -77.824
  N       36.736      40.741     -76.853
  C       38.033      40.919     -76.989
  N       38.467      40.559     -78.234
  O       41.886      40.401     -73.129
  O       43.198      42.520     -73.648
  H       41.818      41.028     -80.189
  H       43.831      41.970     -73.149
  H       35.938      39.294     -81.688
  H       38.698      41.286     -76.218
  H       39.853      39.760     -79.532
  H       39.550      42.586     -79.457
  H       40.530      42.729     -77.248
  H       42.593      40.682     -78.228
  H       42.346      39.997     -75.736
  H       33.084      39.475     -78.247
  H       34.004      39.855     -76.813
  H       43.320      41.438     -76.111
  P       41.962      44.813     -78.141
  C       40.484      46.604     -79.229
  O       40.994      45.289     -79.327
  O       43.187      45.644     -77.945
  O       41.006      44.878     -76.857
  H       41.188      45.696     -76.358
  H       39.662      46.626     -78.508
  H       40.107      46.908     -80.208
  H       41.265      47.304     -78.917
  H       40.265      44.664     -72.463
  H       41.080      44.514     -74.001
  H       41.981      44.338     -72.514

 3  4  5  6  7  8  9  10  11  12  22  25  29  30  31  32 0
 6-311+G(2d,p)
 ****
 33  36  37 0
 6-311+G(2d,p)
 ****
 1  2  13  14  15  16  17  18  19  20  21  23  24  26 0
 3-21G
 ****
 27  28  34  35  38  39  40  41  42  43  44  45  46  47  48 0
 3-21G
 ****


