%nproc=1
%NoSave
%Mem=1900MB
#P OB98/GEN NMR

erre ene a

0 1
  C      164.749    -108.948    -182.443
  O      165.223    -107.632    -182.232
  H      164.463    -109.402    -181.490
  H      163.871    -108.903    -183.090
  H      165.518    -109.554    -182.931
  P      166.537    -107.481    -181.324
  C      168.292    -107.236    -183.218
  O      167.752    -108.059    -182.196
  C      169.121    -108.073    -184.186
  O      170.208    -108.713    -183.485
  C      168.356    -109.203    -184.870
  O      167.584    -108.729    -185.962
  C      169.504    -110.081    -185.338
  O      170.081    -109.529    -186.539
  C      170.497    -109.959    -184.172
  N      172.212    -114.628    -182.977
  C      172.555    -113.765    -183.957
  N      172.069    -112.529    -184.199
  C      171.142    -112.201    -183.286
  C      170.700    -112.965    -182.219
  C      171.273    -114.240    -182.079
  N      170.862    -115.144    -181.111
  N      169.725    -112.295    -181.507
  C      169.566    -111.156    -182.147
  N      170.404    -111.050    -183.224
  O      166.315    -108.594    -180.190
  O      166.751    -106.127    -180.735
  H      169.382    -109.547    -187.218
  H      165.943    -108.170    -179.395
  H      173.321    -114.114    -184.643
  H      168.860    -110.385    -181.872
  H      171.534    -109.903    -184.517
  H      169.197    -111.105    -185.570
  H      167.744    -109.764    -184.156
  H      169.558    -107.396    -184.931
  H      168.930    -106.467    -182.770
  H      170.978    -116.114    -181.387
  H      169.993    -114.899    -180.654
  H      167.468    -106.749    -183.749
  P      166.364    -109.642    -186.467
  C      164.543    -108.521    -185.013
  O      165.305    -109.694    -185.260
  O      167.001    -111.111    -186.477
  O      165.809    -109.283    -187.801
  H      166.907    -111.503    -187.366
  H      163.882    -108.692    -184.189
  H      163.971    -108.277    -185.884
  H      165.201    -107.710    -184.780

 6  7  8  9  10  11  12  13  14  15  25  28  32  33  34  35 0
 6-311+G(2d,p)
 ****
 36  39  40 0
 6-311+G(2d,p)
 ****
 1  2  3  4  5  16  17  18  19  20  21  22  23  24 0
 3-21G
 ****
 26  27  29  30  31  37  38  41  42  43  44  45  46  47  48 0
 3-21G
 ****


