%nproc=1
%NoSave
%Mem=1900MB
#P OB98/GEN NMR

erre ene a

0 1
  C     -195.368    -206.340    -333.560
  O     -196.641    -205.834    -333.150
  P     -197.901    -206.156    -334.098
  C     -199.627    -205.756    -332.172
  O     -199.146    -205.372    -333.453
  C     -198.789    -205.112    -331.062
  O     -198.636    -203.683    -331.320
  C     -199.378    -205.266    -329.655
  O     -198.270    -205.451    -328.756
  C     -200.032    -203.921    -329.404
  O     -200.208    -203.655    -328.020
  C     -199.050    -202.991    -330.125
  N     -199.634    -201.685    -330.435
  C     -199.034    -200.575    -329.852
  O     -198.113    -200.661    -329.037
  N     -199.568    -199.360    -330.192
  C     -200.662    -199.161    -330.985
  O     -201.100    -198.049    -331.261
  C     -201.322    -200.378    -331.485
  C     -200.786    -201.567    -331.191
  O     -198.172    -207.690    -333.751
  O     -197.635    -205.861    -335.539
  H     -198.021    -207.911    -332.814
  H     -200.460    -204.488    -327.565
  H     -199.131    -198.539    -329.802
  H     -202.229    -200.261    -332.065
  H     -201.257    -202.481    -331.520
  H     -198.155    -202.833    -329.516
  H     -201.020    -203.890    -329.890
  H     -200.064    -206.112    -329.569
  H     -197.786    -205.553    -331.091
  H     -199.573    -206.843    -332.068
  H     -200.682    -205.474    -332.087
  P     -197.958    -206.941    -328.223
  C     -195.567    -206.521    -327.261
  O     -196.924    -206.800    -327.011
  O     -197.044    -207.482    -329.426
  O     -199.167    -207.786    -327.991
  H     -196.350    -206.855    -329.683
  H     -195.087    -206.231    -326.315
  H     -195.452    -205.693    -327.969
  H     -195.064    -207.413    -327.647
  H     -194.624    -206.056    -332.845
  H     -195.115    -205.936    -334.518
  H     -195.412    -207.407    -333.624

 3  4  5  6  7  8  9  10  11  12  13  24  28  29  30  31  32 0
 6-311+G(2d,p)
 ****
 33  34 0
 6-311+G(2d,p)
 ****
 1  2  14  15  16  17  18  19  20  21  22  23  25  26  27 0
 3-21G
 ****
 35  36  37  38  39  40  41  42  43  44  45 0
 3-21G
 ****


