%nproc=1
%NoSave
%Mem=1900MB
#P OB98/GEN NMR

erre ene a

0 1
  C       34.741    -492.742    -728.802
  O       33.339    -492.738    -728.688
  P       32.604    -493.441    -727.443
  C       31.218    -494.987    -728.988
  O       31.187    -493.946    -727.997
  C       29.791    -495.481    -729.279
  O       29.216    -496.088    -728.125
  C       28.829    -494.383    -729.714
  O       29.066    -493.993    -731.060
  C       27.482    -495.057    -729.468
  O       27.124    -495.911    -730.564
  C       27.785    -495.898    -728.192
  N       27.258    -495.283    -726.998
  C       25.882    -494.961    -727.009
  O       25.213    -495.186    -728.029
  N       25.308    -494.377    -725.897
  C       26.063    -494.100    -724.879
  N       25.457    -493.509    -723.802
  C       27.515    -494.389    -724.809
  C       28.033    -494.965    -725.901
  O       32.549    -492.630    -726.187
  O       33.422    -494.821    -727.271
  H       26.394    -496.487    -730.224
  H       34.318    -494.653    -726.862
  H       28.098    -494.140    -723.946
  H       29.105    -495.224    -725.946
  H       27.336    -496.912    -728.293
  H       26.685    -494.323    -729.322
  H       28.942    -493.517    -729.042
  H       29.873    -496.247    -730.080
  H       24.470    -493.297    -723.903
  H       31.801    -495.804    -728.576
  H       25.949    -493.217    -722.967
  H       31.715    -494.607    -729.878
  P       29.571    -492.511    -731.387
  C       28.785    -493.061    -733.773
  O       29.775    -492.404    -732.971
  O       30.744    -492.047    -730.580
  O       28.283    -491.589    -731.116
  H       28.556    -490.807    -730.630
  H       28.846    -492.658    -734.793
  H       27.787    -492.914    -733.370
  H       29.017    -494.146    -733.813
  H       35.028    -492.226    -729.694
  H       35.092    -493.752    -728.845
  H       35.169    -492.251    -727.953

 3  4  5  6  7  8  9  10  11  12  13  23  27  28  29  30  32 0
 6-311+G(2d,p)
 ****
 34  35 0
 6-311+G(2d,p)
 ****
 1  2  14  15  16  17  18  19  20  21  22  24  25  26 0
 3-21G
 ****
 31  33  36  37  38  39  40  41  42  43  44  45  46 0
 3-21G
 ****


