%nproc=1
%NoSave
%Mem=1900MB
#P OB98/GEN NMR

erre ene a

0 1
  C      694.535      76.806    -189.806
  O      695.054      77.731    -188.870
  P      694.802      77.616    -187.298
  C      692.754      77.795    -185.700
  O      693.281      78.051    -186.998
  C      691.518      78.644    -185.370
  O      691.894      80.040    -185.333
  C      690.474      78.512    -186.486
  O      689.577      77.419    -186.494
  C      689.816      79.887    -186.577
  O      688.573      79.941    -185.870
  C      690.837      80.817    -185.929
  N      690.010      84.651    -189.150
  C      689.179      84.135    -188.175
  N      687.900      84.584    -188.194
  N      689.560      83.255    -187.281
  C      690.840      82.834    -187.457
  C      691.762      83.277    -188.374
  C      691.337      84.273    -189.326
  O      692.016      84.696    -190.262
  N      692.938      82.569    -188.303
  C      692.718      81.675    -187.356
  N      691.444      81.769    -186.848
  O      695.878      78.133    -186.402
  O      694.740      76.015    -187.101
  H      688.282      80.879    -185.864
  H      695.119      75.811    -186.225
  H      689.634      85.266    -189.866
  H      693.418      80.915    -187.045
  H      690.379      81.395    -185.120
  H      689.592      80.134    -187.624
  H      687.535      85.140    -188.947
  H      691.034      78.408    -187.426
  H      687.224      84.107    -187.603
  H      691.133      78.411    -184.375
  H      693.552      77.977    -184.975
  H      692.488      76.733    -185.620
  P      689.110      76.587    -187.777
  C      688.097      77.047    -190.082
  O      688.414      77.590    -188.806
  O      687.874      75.710    -187.245
  O      690.153      75.696    -188.371
  H      687.750      74.933    -187.825
  H      687.918      77.868    -190.782
  H      687.183      76.441    -189.999
  H      688.913      76.426    -190.461
  H      694.836      77.090    -190.793
  H      693.467      76.800    -189.747
  H      694.910      75.828    -189.587

 3  4  5  6  7  8  9  10  11  12  23  26  30  31 0
 6-311+G(2d,p)
 ****
 33  35  36  37  38 0
 6-311+G(2d,p)
 ****
 1  2  13  14  15  16  17  18  19  20  21  22  24  25 0
 3-21G
 ****
 27  28  29  32  34  39  40  41  42  43  44  45  46  47  48  49 0
 3-21G
 ****


