%nproc=1
%NoSave
%Mem=1900MB
#P OB98/GEN NMR

erre ene a

0 1
  C       20.320     -28.784    -583.868
  O       19.508     -27.858    -584.557
  H       20.285     -28.556    -582.798
  H       21.360     -28.703    -584.207
  H       19.963     -29.808    -584.013
  P       19.223     -28.092    -586.115
  C       19.677     -26.807    -588.304
  O       19.877     -26.856    -586.900
  C       20.380     -25.585    -588.895
  O       19.709     -24.369    -588.478
  C       21.831     -25.425    -588.442
  O       22.673     -26.340    -589.120
  C       22.071     -23.960    -588.774
  O       22.351     -23.795    -590.175
  C       20.710     -23.333    -588.407
  N       20.706     -22.696    -587.078
  C       21.273     -21.427    -587.007
  O       21.779     -20.859    -587.968
  N       21.230     -20.832    -585.765
  C       20.778     -21.410    -584.612
  O       20.813     -20.855    -583.521
  C       20.234     -22.767    -584.757
  C       20.218     -23.341    -585.955
  O       17.800     -28.385    -586.480
  O       20.184     -29.312    -586.500
  H       22.151     -22.863    -590.393
  H       19.674     -30.146    -586.526
  H       21.644     -19.916    -585.687
  H       19.867     -23.259    -583.856
  H       19.823     -24.341    -586.075
  H       20.426     -22.574    -589.139
  H       22.925     -23.538    -588.232
  H       21.908     -25.559    -587.357
  H       20.322     -25.651    -589.986
  H       18.601     -26.731    -588.509
  H       20.058     -27.730    -588.757
  P       23.720     -27.248    -588.310
  C       26.032     -26.944    -587.278
  O       24.887     -26.286    -587.776
  O       24.195     -28.464    -589.039
  O       22.925     -27.650    -586.974
  H       22.645     -28.585    -587.015
  H       26.746     -26.218    -586.949
  H       26.464     -27.544    -588.052
  H       25.754     -27.569    -586.455

 6  7  8  9  10  11  12  13  14  15  16  26  31  32  33  34  35 0
 6-311+G(2d,p)
 ****
 36  37 0
 6-311+G(2d,p)
 ****
 1  2  3  4  5  17  18  19  20  21  22  23  24  25 0
 3-21G
 ****
 27  28  29  30  38  39  40  41  42  43  44  45 0
 3-21G
 ****


