%nproc=1
%NoSave
%Mem=1900MB
#P OB98/GEN NMR

erre ene a

0 1
  C      186.064    -228.436      69.768
  O      185.411    -228.027      68.583
  H      185.321    -228.735      70.511
  H      186.698    -229.297      69.540
  H      186.689    -227.632      70.165
  P      184.665    -226.607      68.609
  C      186.619    -225.437      67.363
  O      185.819    -225.490      68.535
  C      187.696    -224.363      67.501
  O      187.056    -223.056      67.444
  C      188.499    -224.436      68.809
  O      189.864    -224.119      68.521
  C      187.900    -223.322      69.647
  O      188.805    -222.822      70.626
  C      187.534    -222.303      68.572
  N      186.440    -219.049      72.322
  C      187.599    -219.619      71.933
  N      187.813    -220.437      70.883
  C      186.688    -220.596      70.166
  C      185.435    -220.075      70.433
  C      185.326    -219.278      71.587
  N      184.136    -218.749      72.032
  N      184.520    -220.512      69.495
  C      185.206    -221.303      68.692
  N      186.519    -221.385      69.059
  O      184.152    -226.517      70.124
  O      183.552    -226.447      67.631
  H      189.128    -223.568      71.168
  H      183.277    -226.940      70.198
  H      188.467    -219.399      72.549
  H      184.798    -221.858      67.859
  H      188.394    -221.703      68.248
  H      187.005    -223.691      70.162
  H      188.443    -225.410      69.308
  H      188.365    -224.428      66.634
  H      185.982    -225.192      66.507
  H      184.136    -218.282      72.925
  H      183.282    -219.001      71.557
  H      187.077    -226.416      67.193
  P      190.972    -225.214      68.902
  C      191.357    -225.805      66.395
  O      191.069    -226.276      67.706
  O      190.276    -226.046      70.078
  O      192.276    -224.630      69.337
  H      190.947    -226.358      70.713
  H      191.387    -226.632      65.717
  H      192.305    -225.309      66.394
  H      190.596    -225.119      66.087

 6  7  8  9  10  11  12  13  14  15  25  28  32  33  34  35 0
 6-311+G(2d,p)
 ****
 36  39  40 0
 6-311+G(2d,p)
 ****
 1  2  3  4  5  16  17  18  19  20  21  22  23  24 0
 3-21G
 ****
 26  27  29  30  31  37  38  41  42  43  44  45  46  47 0
 3-21G
 ****
 48 0
 3-21G
 ****


