%nproc=1
%NoSave
%Mem=1900MB
#P OB98/GEN NMR

erre ene a

0 1
  C     -174.476     -41.851      90.249
  O     -175.350     -42.617      91.061
  P     -175.484     -42.236      92.613
  C     -174.253     -43.238      94.706
  O     -174.194     -42.855      93.344
  C     -172.836     -43.378      95.278
  O     -172.116     -42.131      95.064
  C     -172.785     -43.684      96.782
  O     -171.658     -44.543      97.004
  C     -172.541     -42.314      97.394
  O     -171.975     -42.388      98.695
  C     -171.616     -41.691      96.341
  N     -171.574     -40.228      96.396
  C     -170.367     -39.627      96.748
  O     -169.346     -40.251      97.033
  N     -170.378     -38.257      96.788
  C     -171.462     -37.452      96.586
  O     -171.420     -36.230      96.653
  C     -172.718     -38.145      96.267
  C     -172.714     -39.478      96.179
  O     -176.683     -43.194      93.064
  O     -175.708     -40.783      92.857
  H     -176.674     -44.055      92.611
  H     -171.277     -43.068      98.685
  H     -169.504     -37.796      97.006
  H     -173.606     -37.542      96.111
  H     -173.628     -40.012      95.947
  H     -170.601     -42.093      96.448
  H     -173.490     -41.772      97.468
  H     -173.696     -44.167      97.144
  H     -172.312     -44.160      94.711
  H     -174.765     -44.201      94.794
  H     -174.825     -42.497      95.269
  P     -171.606     -45.386      98.374
  C     -171.501     -44.751     100.912
  O     -171.743     -44.344      99.582
  O     -170.045     -45.769      98.409
  O     -172.496     -46.583      98.413
  H     -169.469     -45.010      98.245
  H     -171.313     -43.863     101.525
  H     -170.630     -45.408     100.982
  H     -172.381     -45.268     101.303
  H     -174.498     -42.227      89.248
  H     -173.480     -41.919      90.634
  H     -174.790     -40.828      90.253

 3  4  5  6  7  8  9  10  11  12  13  24  28  29  30  31  32 0
 6-311+G(2d,p)
 ****
 33  34 0
 6-311+G(2d,p)
 ****
 1  2  14  15  16  17  18  19  20  21  22  23  25  26  27 0
 3-21G
 ****
 35  36  37  38  39  40  41  42  43  44  45 0
 3-21G
 ****


