%nproc=1
%NoSave
%Mem=1900MB
#P OB98/GEN NMR

erre ene a

0 1
  C     -130.758    -261.056     136.358
  O     -131.885    -261.826     135.981
  P     -131.874    -263.395     136.303
  C     -131.632    -264.220     133.853
  O     -131.044    -264.132     135.143
  C     -131.340    -265.579     133.213
  O     -129.936    -265.651     132.846
  C     -131.631    -266.767     134.135
  O     -132.090    -267.877     133.349
  C     -130.265    -267.134     134.680
  O     -130.223    -268.492     135.117
  C     -129.383    -266.828     133.470
  N     -125.334    -268.844     135.726
  C     -126.496    -269.456     135.297
  N     -126.626    -270.770     135.590
  N     -127.440    -268.840     134.637
  C     -127.174    -267.527     134.422
  C     -126.054    -266.812     134.784
  C     -125.021    -267.505     135.526
  O     -123.986    -267.015     135.958
  N     -126.131    -265.513     134.360
  C     -127.310    -265.423     133.781
  N     -127.996    -266.611     133.825
  O     -133.388    -263.830     136.017
  O     -131.473    -263.742     137.697
  H     -130.833    -268.565     135.877
  H     -133.855    -263.977     136.859
  H     -124.642    -269.360     136.242
  H     -127.726    -264.526     133.340
  H     -129.416    -267.639     132.732
  H     -130.016    -266.493     135.533
  H     -125.966    -271.284     136.154
  H     -132.356    -266.559     134.929
  H     -127.488    -271.230     135.326
  H     -131.918    -265.659     132.284
  H     -131.222    -263.432     133.219
  H     -132.714    -264.068     133.932
  P     -133.565    -268.416     133.689
  C     -132.672    -270.238     135.320
  O     -133.465    -269.079     135.141
  O     -133.737    -269.667     132.707
  O     -134.644    -267.399     133.509
  H     -134.680    -269.828     132.523
  H     -131.855    -270.003     136.009
  H     -132.253    -270.601     134.379
  H     -133.291    -271.025     135.758
  H     -130.914    -260.035     136.078
  H     -129.887    -261.432     135.863
  H     -130.621    -261.119     137.417

 3  4  5  6  7  8  9  10  11  12  23  26  30  31 0
 6-311+G(2d,p)
 ****
 33  35  36  37  38 0
 6-311+G(2d,p)
 ****
 1  2  13  14  15  16  17  18  19  20  21  22  24  25 0
 3-21G
 ****
 27  28  29  32  34  39  40  41  42  43  44  45  46  47  48  49 0
 3-21G
 ****


