%nproc=1
%NoSave
%Mem=1900MB
#P OB98/GEN NMR

erre ene a

0 1
  C      -10.270     156.191     120.276
  O      -10.564     154.894     120.753
  P      -11.995     154.546     121.377
  C      -13.081     154.063     119.107
  O      -13.111     154.872     120.275
  C      -14.343     153.212     118.985
  O      -14.513     152.796     117.605
  C      -14.336     151.950     119.859
  O      -15.667     151.768     120.353
  C      -13.978     150.854     118.874
  O      -14.388     149.569     119.321
  C      -14.680     151.364     117.612
  N      -14.152     150.762     116.399
  C      -14.722     149.554     115.992
  O      -15.536     148.979     116.717
  N      -14.343     149.024     114.784
  C      -13.348     149.553     114.139
  N      -13.051     149.038     112.915
  C      -12.561     150.683     114.666
  C      -13.037     151.261     115.766
  O      -12.261     155.139     122.722
  O      -12.016     152.945     121.447
  H      -12.241     152.668     122.356
  H      -13.906     149.352     120.146
  H      -11.666     151.007     114.157
  H      -12.546     152.116     116.216
  H      -15.759     151.165     117.664
  H      -12.892     150.832     118.726
  H      -13.643     152.023     120.703
  H      -15.205     153.841     119.243
  H      -13.638     148.291     112.569
  H      -12.213     153.404     119.172
  H      -12.526     149.567     112.220
  H      -12.955     154.694     118.220
  P      -15.862     151.004     121.752
  C      -15.038     152.914     123.303
  O      -14.813     151.615     122.797
  O      -15.214     149.570     121.429
  O      -17.267     150.830     122.227
  H      -15.607     148.904     122.024
  H      -14.195     153.191     123.941
  H      -15.952     152.935     123.903
  H      -15.113     153.639     122.488
  H       -9.268     156.215     119.902
  H      -10.369     156.896     121.075
  H      -10.950     156.445     119.490

 3  4  5  6  7  8  9  10  11  12  13  24  27  28  29  30  32 0
 6-311+G(2d,p)
 ****
 34  35 0
 6-311+G(2d,p)
 ****
 1  2  14  15  16  17  18  19  20  21  22  23  25  26 0
 3-21G
 ****
 31  33  36  37  38  39  40  41  42  43  44  45  46 0
 3-21G
 ****


