%nproc=1
%NoSave
%Mem=1900MB
#P OB98/GEN NMR

erre ene a

0 1
  C      -73.213     357.372     177.488
  O      -74.286     358.137     178.002
  H      -73.375     356.323     177.745
  H      -72.272     357.702     177.933
  H      -73.161     357.464     176.397
  P      -74.379     359.673     177.547
  C      -76.058     359.569     175.559
  O      -75.851     359.880     176.932
  C      -77.439     360.055     175.117
  O      -78.444     359.142     175.655
  C      -77.795     361.465     175.608
  O      -78.564     362.119     174.591
  C      -78.686     361.200     176.810
  O      -79.555     362.278     177.132
  C      -79.426     359.940     176.344
  N      -80.025     359.201     177.454
  C      -81.233     359.674     177.965
  O      -81.866     360.618     177.502
  N      -81.704     359.010     179.070
  C      -81.098     357.966     179.707
  O      -81.563     357.427     180.710
  C      -79.824     357.515     179.125
  C      -79.355     358.142     178.046
  O      -73.430     359.725     176.260
  O      -73.993     360.676     178.583
  H      -72.511     359.934     176.519
  H      -80.012     362.043     177.971
  H      -82.576     359.344     179.454
  H      -79.311     356.695     179.611
  H      -78.403     357.851     177.604
  H      -80.205     360.204     175.618
  H      -78.068     360.985     177.694
  H      -76.925     362.081     175.869
  H      -77.501     359.992     174.025
  H      -75.996     358.488     175.420
  H      -75.275     360.048     174.960
  P      -77.949     363.456     173.946
  C      -79.330     363.323     171.717
  O      -79.077     364.004     172.941
  O      -76.821     362.849     172.986
  O      -77.462     364.426     174.968
  H      -77.079     361.998     172.590
  H      -80.107     363.828     171.182
  H      -79.634     362.318     171.924
  H      -78.439     363.311     171.125

 6  7  8  9  10  11  12  13  14  15  16  27  31  32  33  34  35 0
 6-311+G(2d,p)
 ****
 36  37 0
 6-311+G(2d,p)
 ****
 1  2  3  4  5  17  18  19  20  21  22  23  24  25 0
 3-21G
 ****
 26  28  29  30  38  39  40  41  42  43  44  45 0
 3-21G
 ****


