%nproc=1
%NoSave
%Mem=1900MB
#P OB98/GEN NMR

erre ene a

0 1
  C      689.614    -356.888    -423.408
  O      690.093    -356.320    -422.198
  P      690.124    -357.268    -420.905
  C      691.787    -355.588    -419.813
  O      690.573    -356.329    -419.683
  C      691.900    -354.549    -418.698
  O      690.983    -353.473    -418.940
  C      691.549    -355.089    -417.318
  O      692.614    -355.850    -416.796
  C      691.279    -353.799    -416.555
  O      692.495    -353.250    -416.021
  C      690.691    -352.875    -417.649
  N      689.264    -352.647    -417.482
  C      688.887    -352.047    -416.271
  O      689.734    -351.774    -415.424
  N      687.548    -351.821    -416.047
  C      686.672    -352.168    -416.937
  N      685.365    -351.913    -416.663
  C      687.030    -352.810    -418.219
  C      688.336    -353.027    -418.424
  O      691.402    -358.193    -421.156
  O      688.879    -358.069    -420.682
  H      692.869    -353.945    -415.432
  H      691.313    -359.049    -420.698
  H      686.270    -353.078    -418.926
  H      688.687    -353.497    -419.325
  H      691.197    -351.904    -417.640
  H      690.606    -353.960    -415.708
  H      690.639    -355.696    -417.363
  H      692.921    -354.144    -418.702
  H      685.150    -351.471    -415.779
  H      691.792    -355.072    -420.779
  H      684.613    -352.116    -417.304
  H      692.635    -356.285    -419.783
  P      692.257    -357.122    -415.895
  C      694.575    -358.162    -416.276
  O      693.664    -357.637    -415.325
  O      691.918    -358.237    -417.005
  O      691.151    -356.961    -414.906
  H      691.581    -359.039    -416.574
  H      695.537    -358.328    -415.786
  H      694.718    -357.459    -417.106
  H      694.203    -359.121    -416.661
  H      689.647    -356.153    -424.185
  H      688.605    -357.219    -423.272
  H      690.229    -357.721    -423.679

 3  4  5  6  7  8  9  10  11  12  13  21  23  27  28  29  30  32 0
 6-311+G(2d,p)
 ****
 34  35 0
 6-311+G(2d,p)
 ****
 1  2  14  15  16  17  18  19  20  22  24  25  26 0
 3-21G
 ****
 31  33  36  37  38  39  40  41  42  43  44  45  46 0
 3-21G
 ****


