%nproc=1
%NoSave
%Mem=1900MB
#P OB98/GEN NMR

erre ene a

0 1
  C      279.339      -9.368    -329.826
  O      278.349      -9.267    -328.800
  P      277.278      -8.083    -328.959
  C      275.178      -9.517    -328.445
  O      276.008      -8.437    -328.046
  C      274.035      -9.718    -327.449
  O      274.507     -10.008    -326.121
  C      273.130      -8.501    -327.316
  O      272.220      -8.451    -328.398
  C      272.455      -8.764    -325.976
  O      271.318      -9.639    -326.125
  C      273.563      -9.458    -325.167
  N      273.160      -6.739    -320.909
  C      272.180      -7.368    -321.653
  N      270.918      -7.283    -321.183
  N      272.420      -8.025    -322.759
  C      273.726      -8.029    -323.108
  C      274.788      -7.470    -322.439
  C      274.511      -6.742    -321.218
  O      275.344      -6.189    -320.513
  N      275.977      -7.736    -323.069
  C      275.616      -8.350    -324.183
  N      274.269      -8.610    -324.223
  O      276.744      -8.267    -330.456
  O      277.859      -6.725    -328.747
  H      271.604     -10.459    -326.570
  H      277.066      -7.536    -331.016
  H      272.917      -6.240    -320.069
  H      276.290      -8.647    -324.972
  H      273.167     -10.298    -324.584
  H      272.074      -7.842    -325.526
  H      270.662      -6.795    -320.338
  H      273.734      -7.589    -327.260
  H      270.187      -7.744    -321.711
  H      273.448     -10.580    -327.795
  H      275.768     -10.433    -328.519
  H      274.791      -9.312    -329.449
  P      272.445      -7.322    -329.516
  C      271.871      -9.168    -331.249
  O      271.722      -7.821    -330.853
  O      274.006      -7.453    -329.851
  O      272.104      -5.939    -329.076
  H      274.403      -6.562    -329.902
  H      270.979      -9.476    -331.796
  H      272.003      -9.829    -330.386
  H      272.740      -9.258    -331.906
  H      279.992     -10.188    -329.612
  H      279.906      -8.462    -329.865
  H      278.860      -9.529    -330.769

 3  4  5  6  7  8  9  10  11  12  23  26  30  31 0
 6-311+G(2d,p)
 ****
 33  35  36  37  38 0
 6-311+G(2d,p)
 ****
 1  2  13  14  15  16  17  18  19  20  21  22  24  25 0
 3-21G
 ****
 27  28  29  32  34  39  40  41  42  43  44  45  46  47  48  49 0
 3-21G
 ****


