%nproc=1
%NoSave
%Mem=1900MB
#P OB98/GEN NMR

erre ene a

0 1
  C     -341.665      14.490     513.383
  O     -342.418      15.499     514.025
  H     -342.350      13.721     513.016
  H     -340.962      14.029     514.082
  H     -341.122      14.908     512.527
  P     -341.634      16.693     514.752
  C     -340.064      16.874     516.800
  O     -341.010      16.080     516.095
  C     -340.442      16.974     518.288
  O     -341.493      17.973     518.440
  C     -340.968      15.658     518.882
  O     -340.620      15.648     520.277
  C     -342.466      15.830     518.710
  O     -343.187      14.898     519.476
  C     -342.618      17.315     519.066
  N     -343.889      17.871     518.628
  C     -345.039      17.308     519.189
  O     -344.943      16.383     519.993
  N     -346.267      17.783     518.795
  C     -346.337      18.691     517.873
  N     -347.589      19.104     517.515
  C     -345.152      19.272     517.208
  C     -343.970      18.822     517.634
  O     -342.405      17.960     514.942
  O     -340.348      16.928     513.827
  H     -344.135      15.163     519.552
  H     -340.465      17.742     513.300
  H     -345.268      20.006     516.429
  H     -343.041      19.189     517.206
  H     -342.526      17.468     520.147
  H     -342.755      15.660     517.668
  H     -340.567      14.774     518.390
  H     -339.574      17.345     518.841
  H     -348.374      18.673     517.989
  H     -340.069      17.872     516.348
  H     -347.767      19.791     516.799
  H     -339.064      16.443     516.702
  P     -339.697      14.513     520.928
  C     -339.720      11.952     521.286
  O     -340.425      13.089     520.787
  O     -339.247      14.827     522.325
  O     -338.433      14.385     519.954
  H     -337.651      14.124     520.476
  H     -340.309      11.072     521.133
  H     -339.533      12.079     522.332
  H     -338.789      11.853     520.767

 6  7  8  9  10  11  12  13  14  15  16  26  30  31  32  33  35 0
 6-311+G(2d,p)
 ****
 37  38 0
 6-311+G(2d,p)
 ****
 1  2  3  4  5  17  18  19  20  21  22  23  24  25 0
 3-21G
 ****
 27  28  29  34  36  39  40  41  42  43  44  45  46 0
 3-21G
 ****


