%nproc=1
%NoSave
%Mem=1900MB
#P OB98/GEN NMR

erre ene a

0 1
  C        7.123    -782.637    -118.188
  O        5.964    -783.318    -117.713
  P        6.158    -784.711    -116.945
  C        5.448    -784.378    -114.412
  O        5.134    -784.801    -115.722
  C        4.166    -784.336    -113.569
  O        3.405    -783.151    -113.879
  C        3.246    -785.531    -113.811
  O        3.593    -786.639    -112.983
  C        1.876    -784.955    -113.495
  O        1.684    -784.859    -112.068
  C        2.011    -783.538    -114.117
  N        1.706    -783.374    -115.552
  C        0.810    -784.239    -116.173
  O        0.230    -785.171    -115.603
  N        0.567    -784.005    -117.509
  C        0.987    -782.921    -118.220
  O        0.697    -782.735    -119.397
  C        1.796    -781.959    -117.474
  C        2.130    -782.226    -116.208
  O        7.576    -784.561    -116.240
  O        6.092    -785.919    -117.836
  H        0.795    -784.501    -111.930
  H        8.211    -785.205    -116.608
  H       -0.021    -784.666    -117.985
  H        2.115    -781.058    -117.990
  H        2.734    -781.512    -115.650
  H        1.376    -782.818    -113.568
  H        1.080    -785.584    -113.872
  H        3.259    -785.820    -114.858
  H        4.441    -784.282    -112.505
  H        5.921    -783.398    -114.419
  H        6.168    -785.073    -113.972
  P        3.949    -788.053    -113.646
  C        4.845    -789.155    -111.509
  O        3.803    -789.124    -112.467
  O        5.219    -788.103    -114.424
  O        2.676    -788.372    -114.564
  H        2.828    -788.097    -115.497
  H        4.554    -789.799    -110.683
  H        5.034    -788.137    -111.119
  H        5.759    -789.539    -111.967
  H        6.830    -781.730    -118.675
  H        7.644    -783.262    -118.883
  H        7.765    -782.408    -117.363

 3  4  5  6  7  8  9  10  11  12  13  23  28  29  30  31  32 0
 6-311+G(2d,p)
 ****
 33  34 0
 6-311+G(2d,p)
 ****
 1  2  14  15  16  17  18  19  20  21  22  24  25  26  27 0
 3-21G
 ****
 35  36  37  38  39  40  41  42  43  44  45 0
 3-21G
 ****


