%nproc=1
%NoSave
%Mem=1900MB
#P OB98/GEN NMR

erre ene a

0 1
  C      356.227     161.298     -70.006
  O      354.824     161.557     -70.140
  P      353.877     161.239     -68.890
  C      352.968     163.672     -68.762
  O      353.613     162.603     -68.084
  C      352.471     164.721     -67.755
  O      351.419     164.195     -66.920
  C      353.543     165.206     -66.796
  O      354.354     166.217     -67.383
  C      352.695     165.796     -65.679
  O      352.236     167.111     -66.053
  C      351.517     164.821     -65.617
  N      349.201     162.288     -61.816
  C      348.785     163.298     -62.610
  N      349.466     163.933     -63.589
  C      350.697     163.411     -63.724
  C      351.259     162.380     -62.986
  C      350.455     161.806     -61.990
  N      350.882     160.771     -61.181
  N      352.546     162.129     -63.403
  C      352.755     162.982     -64.386
  N      351.667     163.786     -64.611
  O      354.837     160.416     -67.906
  O      352.655     160.458     -69.237
  H      351.510     167.342     -65.446
  H      354.319     159.743     -67.424
  H      347.772     163.650     -62.434
  H      353.674     163.053     -64.960
  H      350.562     165.325     -65.419
  H      353.251     165.909     -64.745
  H      354.144     164.369     -66.413
  H      352.070     165.573     -68.323
  H      352.135     163.300     -69.356
  H      350.237     160.392     -60.512
  H      351.806     160.397     -61.327
  H      353.676     164.124     -69.469
  P      355.721     166.591     -66.634
  C      357.433     166.253     -68.551
  O      356.867     165.747     -67.365
  O      355.553     165.880     -65.206
  O      355.969     168.058     -66.505
  H      356.038     166.385     -64.523
  H      358.374     165.730     -68.743
  H      357.636     167.325     -68.468
  H      356.755     166.074     -69.395
  H      356.726     161.558     -70.916
  H      356.380     160.259     -69.800
  H      356.623     161.883     -69.202

 3  4  5  6  7  8  9  10  11  12  22  25  29  30  31  32 0
 6-311+G(2d,p)
 ****
 33  36  37 0
 6-311+G(2d,p)
 ****
 1  2  13  14  15  16  17  18  19  20  21  23  24  26 0
 3-21G
 ****
 27  28  34  35  38  39  40  41  42  43  44  45  46  47  48 0
 3-21G
 ****


