%nproc=1
%NoSave
%Mem=1900MB
#P OB98/GEN NMR

erre ene a

0 1
  C      -38.889     245.839     295.794
  O      -37.969     245.062     295.046
  H      -38.604     246.893     295.715
  H      -38.869     245.556     296.849
  H      -39.898     245.715     295.396
  P      -38.080     243.466     295.134
  C      -35.972     243.375     296.632
  O      -37.356     243.058     296.501
  C      -35.459     242.929     298.000
  O      -36.130     243.656     299.047
  C      -35.715     241.455     298.285
  O      -34.806     240.634     297.578
  C      -35.581     241.430     299.797
  O      -34.206     241.401     300.198
  C      -36.245     242.772     300.188
  N      -37.638     242.617     300.593
  C      -37.854     241.921     301.788
  O      -36.906     241.486     302.438
  N      -39.150     241.722     302.201
  C      -40.136     242.187     301.499
  N      -41.392     241.954     301.963
  C      -39.949     242.936     300.240
  C      -38.687     243.108     299.849
  O      -37.620     242.690     293.936
  O      -39.630     243.213     295.453
  H      -34.208     241.544     301.166
  H      -40.139     243.127     294.628
  H      -40.801     243.310     299.689
  H      -38.460     243.650     298.936
  H      -35.698     243.247     301.010
  H      -36.070     240.558     300.228
  H      -36.751     241.196     298.032
  H      -34.387     243.161     298.062
  H      -41.471     241.425     302.824
  H      -35.875     244.459     296.526
  H      -42.227     242.339     301.549
  H      -35.389     242.895     295.836
  P      -35.032     239.050     297.493
  C      -33.292     238.617     299.351
  O      -34.657     238.488     298.950
  O      -34.357     238.369     296.349
  O      -36.632     238.913     297.458
  H      -36.996     239.175     296.581
  H      -33.169     238.209     300.333
  H      -33.018     239.651     299.357
  H      -32.667     238.087     298.663

 6  7  8  9  10  11  12  13  14  15  16  26  30  31  32  33  35 0
 6-311+G(2d,p)
 ****
 37  38 0
 6-311+G(2d,p)
 ****
 1  2  3  4  5  17  18  19  20  21  22  23  24  25 0
 3-21G
 ****
 27  28  29  34  36  39  40  41  42  43  44  45  46 0
 3-21G
 ****


