%nproc=1
%NoSave
%Mem=1900MB
#P OB98/GEN NMR

erre ene a

0 1
  C       93.494      17.789      23.104
  O       92.346      18.045      22.322
  H       94.198      17.164      22.549
  H       93.979      18.741      23.339
  H       93.214      17.296      24.039
  P       91.476      16.772      21.873
  C       93.107      16.398      19.885
  O       92.473      15.840      21.027
  C       94.056      15.373      19.273
  O       95.217      15.204      20.116
  C       93.456      13.981      19.113
  O       92.651      13.873      17.951
  C       94.719      13.146      18.986
  O       95.264      13.288      17.661
  C       95.640      13.815      20.015
  N       96.991       9.744      22.805
  C       97.184      10.051      21.504
  N       96.789      11.153      20.837
  C       96.130      11.991      21.651
  C       95.850      11.811      22.996
  C       96.321      10.624      23.583
  N       96.113      10.302      24.906
  N       95.120      12.877      23.490
  C       94.993      13.696      22.468
  N       95.578      13.202      21.331
  O       90.495      17.363      20.754
  O       90.742      16.071      22.967
  H       96.106      12.796      17.652
  H       89.722      16.778      20.646
  H       97.726       9.310      20.923
  H       94.491      14.655      22.498
  H       96.691      13.813      19.704
  H       94.546      12.081      19.151
  H       92.909      13.670      20.013
  H       94.400      15.763      18.306
  H       93.677      17.283      20.185
  H       96.325       9.353      25.177
  H       95.487      10.879      25.448
  H       92.345      16.693      19.158
  P       91.121      13.433      18.153
  C       91.439      10.966      17.387
  O       91.156      11.859      18.460
  O       90.521      13.511      16.672
  O       90.353      14.267      19.123
  H       89.559      13.672      16.695
  H       91.427       9.959      17.748
  H       92.405      11.188      16.983
  H       90.698      11.080      16.623

 6  7  8  9  10  11  12  13  14  15  25  28  32  33  34  35 0
 6-311+G(2d,p)
 ****
 36  39  40 0
 6-311+G(2d,p)
 ****
 1  2  3  4  5  16  17  18  19  20  21  22  23  24 0
 3-21G
 ****
 26  27  29  30  31  37  38  41  42  43  44  45  46  47 0
 3-21G
 ****
 48 0
 3-21G
 ****


