%nproc=1
%NoSave
%Mem=1900MB
#P OB98/GEN NMR

erre ene a

0 1
  C      676.474     360.209     112.606
  O      676.863     361.447     113.165
  H      676.088     360.359     111.595
  H      677.348     359.555     112.555
  H      675.711     359.732     113.230
  P      675.724     362.573     113.297
  C      675.457     364.682     114.780
  O      676.356     363.787     114.140
  C      676.246     365.761     115.529
  O      676.717     365.199     116.778
  C      677.457     366.317     114.764
  O      677.336     367.739     114.598
  C      678.644     366.041     115.680
  O      679.586     367.111     115.720
  C      677.991     365.805     117.038
  N      682.779     364.788     118.460
  C      682.221     365.900     117.935
  N      680.920     366.146     117.679
  C      680.165     365.098     118.043
  C      680.584     363.905     118.606
  C      681.966     363.756     118.799
  N      682.545     362.597     119.272
  N      679.512     363.061     118.832
  C      678.468     363.717     118.374
  N      678.810     364.946     117.868
  O      674.672     361.914     114.308
  O      675.079     362.967     112.007
  H      680.207     366.905     116.442
  H      673.770     362.010     113.950
  H      682.911     366.705     117.686
  H      677.449     363.338     118.342
  H      677.819     366.742     117.580
  H      679.159     365.135     115.322
  H      677.595     365.840     113.784
  H      675.550     366.575     115.781
  H      674.836     364.132     115.499
  H      683.554     362.542     119.269
  H      681.959     361.794     119.418
  H      674.805     365.129     114.028
  P      677.368     368.294     113.089
  C      677.080     370.630     111.982
  O      677.349     369.896     113.170
  O      675.905     367.933     112.539
  O      678.451     367.698     112.248
  H      675.934     367.827     111.570
  H      677.102     371.678     112.197
  H      676.113     370.363     111.609
  H      677.822     370.402     111.246

 6  7  8  9  10  11  12  13  14  15  25  28  32  33  34  35 0
 6-311+G(2d,p)
 ****
 36  39  40 0
 6-311+G(2d,p)
 ****
 1  2  3  4  5  16  17  18  19  20  21  22  23  24 0
 3-21G
 ****
 26  27  29  30  31  37  38  41  42  43  44  45  46  47  48 0
 3-21G
 ****


