%nproc=1
%NoSave
%Mem=1900MB
#P OB98/GEN NMR

erre ene a

0 1
  C        7.214    -111.109      92.534
  O        7.558    -111.985      91.480
  H        8.084    -110.921      93.169
  H        6.879    -110.159      92.109
  H        6.403    -111.535      93.132
  P        8.113    -113.432      91.895
  C       10.578    -112.755      92.376
  O        9.670    -113.412      91.504
  C       12.004    -112.990      91.890
  O       12.947    -112.380      92.801
  C       12.392    -114.462      91.815
  O       11.942    -115.085      90.624
  C       13.907    -114.356      91.843
  O       14.391    -113.947      90.552
  C       14.120    -113.236      92.873
  N       16.755    -116.375      95.942
  C       16.887    -116.073      94.631
  N       16.159    -115.210      93.894
  C       15.216    -114.621      94.644
  C       14.965    -114.822      95.992
  C       15.784    -115.753      96.652
  N       15.632    -116.088      97.979
  N       13.897    -114.051      96.408
  C       13.526    -113.384      95.334
  N       14.270    -113.719      94.236
  O        7.480    -114.412      90.799
  O        7.831    -113.862      93.296
  H       14.018    -114.567      89.898
  H        7.568    -115.342      91.083
  H       17.681    -116.596      94.106
  H       12.721    -112.661      95.298
  H       14.997    -112.618      92.648
  H       14.393    -115.306      92.082
  H       12.057    -115.012      92.702
  H       12.120    -112.502      90.914
  H       10.462    -113.161      93.387
  H       16.167    -116.870      98.321
  H       14.824    -115.743      98.476
  H       10.357    -111.683      92.391
  P       10.688    -116.083      90.738
  C       12.005    -118.050      91.810
  O       11.286    -117.571      90.678
  O        9.969    -115.916      89.320
  O        9.767    -115.796      91.879
  H        9.004    -116.033      89.403
  H       12.340    -119.049      91.623
  H       11.366    -118.042      92.668
  H       12.850    -117.418      91.989

 6  7  8  9  10  11  12  13  14  15  25  28  32  33  34  35 0
 6-311+G(2d,p)
 ****
 36  39  40 0
 6-311+G(2d,p)
 ****
 1  2  3  4  5  16  17  18  19  20  21  22  23  24 0
 3-21G
 ****
 26  27  29  30  31  37  38  41  42  43  44  45  46  47 0
 3-21G
 ****
 48 0
 3-21G
 ****


