%nproc=1
%NoSave
%Mem=1900MB
#P OB98/GEN NMR

erre ene a

0 1
  C      562.795     243.087    -317.354
  O      562.671     244.439    -317.750
  H      562.185     242.928    -316.460
  H      563.832     242.849    -317.121
  H      562.431     242.428    -318.147
  P      563.535     244.891    -319.028
  C      564.122     247.056    -317.754
  O      563.565     246.496    -318.940
  C      563.264     248.219    -317.252
  O      563.414     249.336    -318.167
  C      561.763     247.881    -317.180
  O      561.193     248.552    -316.053
  C      561.215     248.498    -318.465
  O      559.821     248.775    -318.373
  C      562.107     249.733    -318.606
  N      559.629     252.578    -322.034
  C      559.465     252.417    -320.704
  N      560.186     251.651    -319.865
  C      561.207     251.059    -320.509
  C      561.498     251.127    -321.860
  C      560.651     251.927    -322.645
  N      560.792     252.079    -324.001
  N      562.595     250.341    -322.153
  C      562.969     249.812    -321.002
  N      562.140     250.210    -319.980
  O      563.089     244.337    -320.339
  O      565.021     244.491    -318.577
  H      559.512     249.123    -319.237
  H      565.209     244.783    -317.664
  H      558.627     252.964    -320.262
  H      563.807     249.141    -320.850
  H      561.768     250.581    -317.978
  H      561.370     247.814    -319.301
  H      561.567     246.816    -317.125
  H      563.643     248.548    -316.273
  H      565.144     247.422    -317.954
  H      560.136     252.667    -324.497
  H      561.549     251.604    -324.483
  H      564.176     246.265    -316.998
  P      561.237     247.840    -314.626
  C      558.713     247.417    -314.352
  O      559.854     248.113    -313.857
  O      562.462     248.104    -313.811
  O      561.128     246.281    -314.990
  H      561.753     245.770    -314.446
  H      557.856     247.675    -313.766
  H      558.883     246.363    -314.289
  H      558.543     247.691    -315.372

 6  7  8  9  10  11  12  13  14  15  25  28  32  33  34  35 0
 6-311+G(2d,p)
 ****
 36  39  40 0
 6-311+G(2d,p)
 ****
 1  2  3  4  5  16  17  18  19  20  21  22  23  24 0
 3-21G
 ****
 26  27  29  30  31  37  38  41  42  43  44  45  46  47 0
 3-21G
 ****
 48 0
 3-21G
 ****


