%nproc=1
%NoSave
%Mem=1900MB
#P OB98/GEN NMR

erre ene a

0 1
  C       -6.913    -833.789      65.628
  O       -7.239    -834.479      66.815
  H       -6.200    -832.988      65.839
  H       -6.453    -834.493      64.928
  H       -7.816    -833.374      65.169
  P       -7.938    -833.624      67.981
  C       -7.509    -831.189      68.777
  O       -6.947    -832.396      68.274
  C       -6.568    -830.025      68.478
  O       -6.244    -829.992      67.070
  C       -7.147    -828.654      68.800
  O       -7.043    -828.333      70.180
  C       -6.243    -827.765      67.963
  O       -4.971    -827.608      68.617
  C       -6.081    -828.603      66.683
  N       -7.034    -825.699      62.580
  C       -5.967    -825.768      63.401
  N       -5.795    -826.564      64.477
  C       -6.870    -827.350      64.669
  C       -8.034    -827.379      63.916
  C       -8.090    -826.506      62.817
  N       -9.186    -826.416      61.982
  N       -8.934    -828.285      64.443
  C       -8.304    -828.818      65.474
  N       -7.060    -828.275      65.657
  O       -7.765    -834.546      69.278
  O       -9.360    -833.242      67.742
  H       -5.116    -826.999      69.365
  H       -8.416    -834.291      69.960
  H       -5.149    -825.097      63.171
  H       -8.707    -829.590      66.117
  H       -5.090    -828.495      66.235
  H       -6.647    -826.767      67.808
  H       -8.179    -828.554      68.441
  H       -5.632    -830.191      69.030
  H       -7.643    -831.279      69.857
  H       -9.202    -825.636      61.344
  H      -10.032    -826.907      62.241
  H       -8.482    -831.021      68.306
  P       -8.054    -827.229      70.761
  C       -8.568    -824.795      70.000
  O       -7.603    -825.840      70.112
  O       -7.598    -827.094      72.287
  O       -9.499    -827.571      70.620
  H       -8.349    -826.794      72.846
  H       -8.114    -823.937      69.549
  H       -8.929    -824.537      70.974
  H       -9.385    -825.127      69.394

 6  7  8  9  10  11  12  13  14  15  25  28  32  33  34  35 0
 6-311+G(2d,p)
 ****
 36  39  40 0
 6-311+G(2d,p)
 ****
 1  2  3  4  5  16  17  18  19  20  21  22  23  24 0
 3-21G
 ****
 26  27  29  30  31  37  38  41  42  43  44  45  46  47 0
 3-21G
 ****
 48 0
 3-21G
 ****


