%nproc=1
%NoSave
%Mem=1900MB
#P OB98/GEN NMR

erre ene a

0 1
  C      389.919       9.323      11.131
  O      390.754      10.434      10.804
  P      390.197      11.891      11.194
  C      389.592      12.769       8.834
  O      389.117      12.337      10.099
  C      388.453      13.218       7.913
  O      388.969      13.707       6.646
  C      387.463      12.094       7.581
  O      386.166      12.697       7.458
  C      387.913      11.625       6.220
  O      386.871      10.933       5.533
  C      388.349      12.954       5.583
  N      389.252      12.780       4.449
  C      388.679      12.371       3.238
  O      387.477      12.104       3.182
  N      389.484      12.232       2.135
  C      390.760      12.434       2.239
  N      391.505      12.277       1.111
  C      391.413      12.810       3.508
  C      390.606      12.969       4.555
  O      391.446      12.854      10.914
  O      389.743      11.993      12.617
  H      386.085      11.520       5.500
  H      391.608      13.427      11.685
  H      392.490      12.946       3.554
  H      390.994      13.245       5.525
  H      387.476      13.519       5.240
  H      388.776      10.944       6.319
  H      387.428      11.308       8.341
  H      387.926      14.045       8.399
  H      391.018      12.026       0.258
  H      390.145      11.957       8.351
  H      392.504      12.407       1.078
  H      390.314      13.583       8.987
  P      385.187      12.671       8.724
  C      383.725      10.701       7.945
  O      384.722      11.140       8.854
  O      383.863      13.352       8.121
  O      385.630      13.351       9.976
  H      383.201      13.467       8.822
  H      383.597       9.629       8.057
  H      384.032      10.915       6.916
  H      382.780      11.199       8.164
  H      390.396       8.416      10.824
  H      388.981       9.421      10.626
  H      389.755       9.299      12.188

 3  4  5  6  7  8  9  10  11  12  13  21  23  27  28  29  30  32 0
 6-311+G(2d,p)
 ****
 34  35 0
 6-311+G(2d,p)
 ****
 1  2  14  15  16  17  18  19  20  22  24  25  26 0
 3-21G
 ****
 31  33  36  37  38  39  40  41  42  43  44  45  46 0
 3-21G
 ****


