%nproc=1
%NoSave
%Mem=1900MB
#P OB98/GEN NMR

erre ene a

0 1
  C     -258.278     251.162    -811.715
  O     -257.034     251.095    -811.040
  H     -259.076     251.243    -810.976
  H     -258.431     250.266    -812.315
  H     -258.305     252.048    -812.363
  P     -255.722     250.997    -811.961
  C     -254.705     253.399    -811.926
  O     -254.682     252.077    -811.379
  C     -254.473     254.409    -810.811
  O     -255.524     254.319    -809.821
  C     -253.168     254.198    -810.033
  O     -252.030     254.690    -810.747
  C     -253.470     254.968    -808.753
  O     -253.217     256.374    -808.902
  C     -254.961     254.712    -808.543
  N     -257.240     253.754    -804.078
  C     -257.224     254.856    -804.872
  N     -256.608     255.028    -806.057
  C     -255.960     253.897    -806.417
  C     -255.893     252.699    -805.711
  C     -256.577     252.656    -804.485
  N     -256.576     251.537    -803.663
  N     -255.105     251.780    -806.397
  C     -254.709     252.405    -807.484
  N     -255.224     253.689    -807.550
  O     -256.201     251.636    -813.346
  O     -255.177     249.619    -812.137
  H     -253.591     256.789    -808.088
  H     -256.412     250.919    -813.976
  H     -257.798     255.717    -804.496
  H     -254.079     251.996    -808.259
  H     -255.496     255.622    -808.230
  H     -252.844     254.607    -807.931
  H     -253.050     253.133    -809.793
  H     -254.514     255.432    -811.238
  H     -255.687     253.594    -812.390
  H     -253.920     253.481    -812.689
  H     -257.016     251.606    -802.776
  H     -255.984     250.754    -803.915
  P     -250.603     254.148    -810.282
  C     -250.470     252.444    -812.264
  O     -249.878     253.545    -811.588
  O     -250.930     252.843    -809.406
  O     -249.775     255.143    -809.515
  H     -250.288     252.770    -808.672
  H     -249.863     252.172    -813.102
  H     -251.447     252.718    -812.604
  H     -250.546     251.613    -811.594

 6  7  8  9  10  11  12  13  14  15  25  28  32  33  34  35 0
 6-311+G(2d,p)
 ****
 36  37  40 0
 6-311+G(2d,p)
 ****
 1  2  3  4  5  16  17  18  19  20  21  22  23  24 0
 3-21G
 ****
 26  27  29  30  31  38  39 41  42  43  44  45  46  47  48 0
 3-21G
 ****


