%nproc=1
%NoSave
%Mem=1900MB
#P OB98/GEN NMR

erre ene a

0 1
  C      506.533      -2.056    -118.076
  O      506.899      -3.385    -117.737
  P      505.891      -4.564    -118.157
  C      504.663      -4.618    -115.827
  O      504.598      -4.382    -117.232
  C      503.302      -5.092    -115.312
  O      502.280      -4.121    -115.652
  C      502.813      -6.411    -115.912
  O      503.473      -7.530    -115.329
  C      501.321      -6.327    -115.626
  O      501.046      -6.701    -114.263
  C      501.038      -4.824    -115.834
  N      500.439      -4.517    -117.135
  C      499.063      -4.696    -117.238
  O      498.355      -5.091    -116.301
  N      498.517      -4.429    -118.469
  C      499.206      -4.073    -119.593
  O      498.670      -3.886    -120.676
  C      500.659      -3.935    -119.429
  C      501.201      -4.157    -118.233
  O      506.659      -5.833    -117.546
  O      505.636      -4.622    -119.631
  H      507.214      -5.588    -116.781
  H      500.074      -6.636    -114.150
  H      497.515      -4.526    -118.564
  H      501.243      -3.654    -120.305
  H      502.274      -4.075    -118.089
  H      500.359      -4.457    -115.046
  H      500.729      -6.990    -116.275
  H      502.980      -6.407    -116.993
  H      503.355      -5.162    -114.215
  H      504.946      -3.695    -115.322
  H      505.428      -5.373    -115.628
  P      503.360      -8.917    -116.129
  C      500.908      -9.442    -115.391
  O      501.803      -9.144    -116.438
  O      503.684      -9.969    -114.959
  O      504.272      -9.010    -117.304
  H      503.248      -9.745    -114.116
  H      499.891      -9.203    -115.723
  H      501.128      -8.867    -114.492
  H      500.957     -10.509    -115.161
  H      507.291      -1.380    -117.738
  H      505.602      -1.812    -117.608
  H      506.430      -1.974    -119.138

 3  4  5  6  7  8  9  10  11  12  13  24  28  29  30  31  32 0
 6-311+G(2d,p)
 ****
 33  34 0
 6-311+G(2d,p)
 ****
 1  2  14  15  16  17  18  19  20  21  22  23  25  26  27 0
 3-21G
 ****
 35  36  37  38  39  40  41  42  43  44  45 0
 3-21G
 ****


