%nproc=1
%NoSave
%Mem=1900MB
#P OB98/GEN NMR

erre ene a

0 1
  C     -168.748     -78.617     -14.626
  O     -167.872     -78.886     -13.549
  H     -169.289     -79.534     -14.874
  H     -168.187     -78.293     -15.506
  H     -169.474     -77.848     -14.345
  P     -166.957     -77.691     -13.000
  C     -165.194     -79.555     -12.713
  O     -165.783     -78.387     -12.157
  C     -164.380     -80.285     -11.651
  O     -163.340     -79.429     -11.138
  C     -165.202     -80.742     -10.446
  O     -165.884     -81.950     -10.742
  C     -164.100     -80.914      -9.413
  O     -163.386     -82.139      -9.663
  C     -163.201     -79.703      -9.716
  N     -162.650     -77.195      -5.346
  C     -162.200     -78.449      -5.712
  N     -161.547     -79.150      -4.761
  N     -162.391     -78.973      -6.894
  C     -163.121     -78.186      -7.716
  C     -163.635     -76.935      -7.462
  C     -163.369     -76.341      -6.170
  O     -163.734     -75.226      -5.811
  N     -164.378     -76.473      -8.519
  C     -164.280     -77.427      -9.424
  N     -163.540     -78.496      -8.980
  O     -167.668     -76.600     -12.257
  O     -166.206     -77.145     -14.300
  H     -163.929     -82.858      -9.292
  H     -166.698     -76.410     -14.709
  H     -162.487     -76.854      -4.412
  H     -164.721     -77.392     -10.412
  H     -162.142     -79.912      -9.524
  H     -164.474     -80.958      -8.390
  H     -161.625     -78.919      -3.777
  H     -165.883     -79.960     -10.099
  H     -161.254     -80.090      -4.992
  H     -163.885     -81.138     -12.134
  H     -164.550     -79.238     -13.539
  H     -165.968     -80.222     -13.106
  P     -167.383     -81.932     -11.317
  C     -168.142     -84.143     -10.214
  O     -167.803     -83.476     -11.422
  O     -167.562     -81.151     -12.574
  O     -168.275     -81.413     -10.100
  H     -168.359     -80.428     -10.063
  H     -168.400     -85.159     -10.428
  H     -168.976     -83.652      -9.757
  H     -167.305     -84.120      -9.547

 6  7  8  9  10  11  12  13  14  15  26  29  33  34 0
 6-311+G(2d,p)
 ****
 36  38  39  40  41 0
 6-311+G(2d,p)
 ****
 1  2  3  4  5  16  17  18  19  20  21  22  23  24  25 0
 3-21G
 ****
 27  28  30  31  32  35  37  42  43  44  45  46  47 0
 3-21G
 ****
 48  49 0
 3-21G
 ****


