%nproc=1
%NoSave
%Mem=1900MB
#P OB98/GEN NMR

erre ene a

0 1
  C      519.091     131.823    -270.951
  O      519.531     130.930    -269.936
  P      520.082     129.463    -270.286
  C      517.924     128.287    -271.104
  O      518.838     128.476    -270.037
  C      516.772     127.378    -270.666
  O      515.805     127.302    -271.744
  C      517.189     125.946    -270.318
  O      516.351     125.508    -269.238
  C      516.880     125.182    -271.591
  O      516.716     123.783    -271.364
  C      515.616     125.909    -272.055
  N      515.356     125.717    -273.478
  C      514.660     124.563    -273.866
  O      514.311     123.730    -273.034
  N      514.386     124.379    -275.197
  C      514.830     125.224    -276.078
  N      514.480     125.031    -277.377
  C      515.661     126.398    -275.724
  C      515.857     126.588    -274.425
  O      521.330     129.078    -269.583
  O      520.194     129.451    -271.880
  H      516.105     123.670    -270.615
  H      521.054     129.829    -272.205
  H      516.037     127.055    -276.492
  H      516.431     127.437    -274.062
  H      514.746     125.572    -271.475
  H      517.704     125.317    -272.307
  H      518.241     125.873    -270.004
  H      516.269     127.850    -269.810
  H      513.771     124.321    -277.554
  H      518.455     127.804    -271.932
  H      514.510     125.793    -278.043
  H      517.554     129.255    -271.453
  P      517.045     125.037    -267.870
  C      518.303     123.111    -269.077
  O      517.448     123.494    -268.018
  O      515.778     124.957    -266.887
  O      518.076     125.955    -267.301
  H      516.088     125.079    -265.963
  H      518.473     122.037    -269.019
  H      519.266     123.623    -268.991
  H      517.845     123.343    -270.044
  H      518.766     132.739    -270.504
  H      518.278     131.380    -271.488
  H      519.898     132.022    -271.626

 3  4  5  6  7  8  9  10  11  12  13  23  27  28  29  30  32 0
 6-311+G(2d,p)
 ****
 34  35 0
 6-311+G(2d,p)
 ****
 1  2  14  15  16  17  18  19  20  21  22  24  25  26 0
 3-21G
 ****
 31  33  36  37  38  39  40  41  42  43  44  45  46 0
 3-21G
 ****


