%nproc=1
%NoSave
%Mem=1900MB
#P OB98/GEN NMR

erre ene a

0 1
  C     -167.107      99.567     160.934
  O     -167.570      99.892     159.638
  P     -166.538     100.224     158.461
  C     -167.109      98.240     156.946
  O     -166.118      98.833     157.777
  C     -166.551      97.914     155.562
  O     -167.584      97.254     154.777
  C     -166.073      99.129     154.759
  O     -164.954      98.696     153.975
  C     -167.254      99.411     153.844
  O     -166.897     100.174     152.697
  C     -167.710      97.990     153.542
  N     -170.868      99.065     149.670
  C     -169.552      99.304     149.846
  N     -168.786      99.007     150.916
  C     -169.516      98.406     151.870
  C     -170.873      98.124     151.844
  C     -171.561      98.467     150.668
  N     -172.895      98.202     150.454
  N     -171.268      97.551     153.040
  C     -170.171      97.488     153.764
  N     -169.077      97.931     153.075
  O     -165.391     101.097     158.847
  O     -167.441     100.921     157.340
  H     -167.677     100.241     152.117
  H     -167.264     101.884     157.322
  H     -169.042      99.787     149.017
  H     -170.113      97.131     154.784
  H     -167.076      97.502     152.791
  H     -168.021      99.967     154.396
  H     -165.801      99.991     155.374
  H     -165.734      97.189     155.686
  H     -167.933      98.950     156.842
  H     -173.255      98.368     149.529
  H     -173.364      97.531     151.059
  H     -167.498      97.330     157.422
  P     -163.727      99.696     153.710
  C     -162.272      98.883     155.657
  O     -163.039      99.955     155.130
  O     -164.059     100.919     152.925
  O     -162.655      98.775     152.951
  H     -161.998      99.344     152.503
  H     -162.939      98.155     156.121
  H     -161.584      99.277     156.411
  H     -161.691      98.397     154.868
  H     -167.943      99.379     161.575
  H     -166.535     100.383     161.324
  H     -166.492      98.693     160.884

 3  4  5  6  7  8  9  10  11  12  22  25  29  30  31  32 0
 6-311+G(2d,p)
 ****
 33  36  37 0
 6-311+G(2d,p)
 ****
 1  2  13  14  15  16  17  18  19  20  21  23  24  26 0
 3-21G
 ****
 27  28  34  35  38  39  40  41  42  43  44  45  46  47  48 0
 3-21G
 ****


