%nproc=1
%NoSave
%Mem=1900MB
#P OB98/GEN NMR

erre ene a

0 1
  C     -276.288    -157.564    -176.148
  O     -277.197    -157.562    -175.060
  P     -278.086    -156.252    -174.816
  C     -279.612    -156.673    -176.875
  O     -278.696    -155.798    -176.230
  C     -280.595    -155.884    -177.742
  O     -281.528    -156.800    -178.375
  C     -281.424    -154.862    -176.955
  O     -281.685    -153.720    -177.787
  C     -282.745    -155.573    -176.735
  O     -283.807    -154.646    -176.510
  C     -282.862    -156.366    -178.039
  N     -286.531    -158.974    -180.332
  C     -285.658    -158.040    -180.857
  N     -285.853    -157.695    -182.149
  N     -284.682    -157.499    -180.179
  C     -284.615    -157.935    -178.896
  C     -285.413    -158.866    -178.269
  C     -286.495    -159.448    -179.030
  O     -287.318    -160.258    -178.617
  N     -285.014    -159.075    -176.975
  C     -284.007    -158.244    -176.800
  N     -283.750    -157.503    -177.926
  O     -276.988    -155.130    -174.502
  O     -279.069    -156.365    -173.700
  H     -284.628    -155.167    -176.444
  H     -276.986    -154.926    -173.549
  H     -287.274    -159.355    -180.895
  H     -283.450    -158.117    -175.881
  H     -283.222    -155.739    -178.861
  H     -282.674    -156.235    -175.866
  H     -286.627    -158.026    -182.705
  H     -280.966    -154.532    -176.018
  H     -285.255    -156.980    -182.544
  H     -280.037    -155.390    -178.548
  H     -280.169    -157.225    -176.119
  H     -279.059    -157.391    -177.490
  P     -281.673    -152.296    -177.048
  C     -279.132    -152.141    -177.587
  O     -280.153    -152.041    -176.616
  O     -282.418    -152.593    -175.662
  O     -282.325    -151.198    -177.823
  H     -282.823    -151.776    -175.315
  H     -278.652    -151.166    -177.701
  H     -279.515    -152.464    -178.560
  H     -278.385    -152.865    -177.245
  H     -275.772    -158.501    -176.180
  H     -275.581    -156.771    -176.023
  H     -276.826    -157.422    -177.062

 3  4  5  6  7  8  9  10  11  12  23  26  30  31 0
 6-311+G(2d,p)
 ****
 33  35  36  37  38 0
 6-311+G(2d,p)
 ****
 1  2  13  14  15  16  17  18  19  20  21  22  24  25 0
 3-21G
 ****
 27  28  29  32  34  39  40  41  42  43  44  45  46  47  48  49 0
 3-21G
 ****


