%nproc=1
%NoSave
%Mem=1900MB
#P OB98/GEN NMR

erre ene a

0 1
  C     -269.372     129.347     -21.380
  O     -270.334     130.187     -20.773
  H     -269.075     128.578     -20.661
  H     -268.488     129.926     -21.655
  H     -269.786     128.855     -22.265
  P     -271.088     131.275     -21.676
  C     -270.483     133.740     -22.143
  O     -270.008     132.405     -22.043
  C     -269.355     134.663     -22.598
  O     -268.653     134.076     -23.716
  C     -269.823     136.033     -23.077
  O     -270.169     136.860     -21.982
  C     -268.609     136.488     -23.872
  O     -267.589     136.997     -22.994
  C     -268.159     135.161     -24.530
  N     -268.609     135.028     -25.915
  C     -267.636     135.156     -26.900
  O     -266.456     135.404     -26.650
  N     -268.069     134.999     -28.196
  C     -269.361     134.818     -28.587
  O     -269.706     134.740     -29.766
  C     -270.356     134.728     -27.506
  C     -269.939     134.832     -26.240
  O     -272.376     131.797     -21.129
  O     -271.307     130.520     -23.073
  H     -268.019     137.670     -22.429
  H     -272.224     130.194     -23.131
  H     -267.378     135.101     -28.919
  H     -271.394     134.586     -27.783
  H     -270.656     134.770     -25.427
  H     -267.063     135.084     -24.519
  H     -268.841     137.281     -24.580
  H     -270.671     135.923     -23.767
  H     -268.641     134.762     -21.770
  H     -270.840     134.061     -21.154
  H     -271.319     133.767     -22.852
  P     -271.365     137.916     -22.101
  C     -271.832     140.116     -23.331
  O     -270.886     139.082     -23.099
  O     -271.920     138.401     -20.802
  O     -272.481     137.147     -22.954
  H     -273.214     136.878     -22.371
  H     -271.416     140.836     -24.004
  H     -272.074     140.593     -22.404
  H     -272.719     139.698     -23.759

 6  7  8  9  10  11  12  13  14  15  16  26  31  32  33  34  35 0
 6-311+G(2d,p)
 ****
 36  37 0
 6-311+G(2d,p)
 ****
 1  2  3  4  5  17  18  19  20  21  22  23  24  25 0
 3-21G
 ****
 27  28  29  30  38  39  40  41  42  43  44  45 0
 3-21G
 ****


