%nproc=1
%NoSave
%Mem=1900MB
#P OB98/GEN NMR

erre ene a

0 1
  C       75.711      86.303      25.703
  O       74.933      86.841      26.759
  P       73.529      86.138      27.087
  C       71.973      88.259      27.133
  O       72.655      87.243      27.850
  C       70.877      88.876      28.005
  O       69.868      87.886      28.299
  C       71.354      89.382      29.359
  O       72.029      90.626      29.250
  C       70.043      89.436      30.134
  O       69.316      90.632      29.802
  C       69.304      88.197      29.590
  N       69.372      87.046      30.488
  C       68.173      86.650      31.072
  O       67.102      87.217      30.862
  N       68.250      85.583      31.928
  C       69.390      84.931      32.298
  O       69.409      84.009      33.103
  C       70.630      85.416      31.673
  C       70.566      86.433      30.812
  O       73.975      85.110      28.228
  O       72.890      85.518      25.891
  H       74.758      85.426      28.713
  H       68.634      90.741      30.493
  H       67.390      85.263      32.347
  H       71.557      84.928      31.949
  H       71.470      86.809      30.350
  H       68.248      88.433      29.413
  H       70.193      89.435      31.218
  H       72.021      88.643      29.819
  H       70.403      89.687      27.437
  H       71.526      87.823      26.236
  H       72.695      89.024      26.827
  P       73.595      90.629      29.623
  C       73.544      92.747      31.153
  O       73.973      92.150      29.950
  O       74.255      90.355      28.191
  O       73.962      89.635      30.675
  H       73.828      90.856      27.476
  H       74.174      93.617      31.358
  H       73.619      92.052      31.993
  H       72.508      93.079      31.047
  H       76.613      86.869      25.600
  H       75.155      86.350      24.790
  H       75.953      85.284      25.921

 3  4  5  6  7  8  9  10  11  12  13  24  28  29  30  31  32 0
 6-311+G(2d,p)
 ****
 33  34 0
 6-311+G(2d,p)
 ****
 1  2  14  15  16  17  18  19  20  21  22  23  25  26  27 0
 3-21G
 ****
 35  36  37  38  39  40  41  42  43  44  45 0
 3-21G
 ****


