%nproc=1
%NoSave
%Mem=1900MB
#P OB98/GEN NMR

erre ene a

0 1
  C     -179.419      73.452    -119.132
  O     -180.248      73.433    -120.278
  H     -179.839      74.155    -118.408
  H     -178.411      73.782    -119.394
  H     -179.378      72.460    -118.674
  P     -179.838      72.476    -121.494
  C     -179.750      74.632    -122.912
  O     -179.101      73.416    -122.564
  C     -178.745      75.778    -122.913
  O     -177.996      75.791    -121.682
  C     -177.721      75.703    -124.045
  O     -178.277      76.201    -125.250
  C     -176.624      76.591    -123.480
  O     -176.998      77.975    -123.621
  C     -176.632      76.186    -121.997
  N     -171.839      74.826    -121.060
  C     -172.358      76.053    -121.428
  N     -171.463      77.047    -121.616
  N     -173.632      76.277    -121.617
  C     -174.397      75.172    -121.462
  C     -173.999      73.902    -121.115
  C     -172.592      73.679    -120.855
  O     -172.094      72.612    -120.509
  N     -175.053      73.025    -121.119
  C     -176.093      73.773    -121.431
  N     -175.746      75.082    -121.663
  O     -180.936      71.639    -122.080
  O     -178.650      71.584    -120.905
  H     -176.934      78.185    -124.571
  H     -178.988      70.750    -120.530
  H     -170.846      74.713    -120.948
  H     -177.114      73.419    -121.498
  H     -176.370      77.020    -121.336
  H     -175.666      76.460    -123.981
  H     -170.480      76.860    -121.764
  H     -177.322      74.691    -124.165
  H     -171.817      77.939    -121.935
  H     -179.309      76.718    -122.956
  H     -180.535      74.811    -122.170
  H     -180.212      74.547    -123.901
  P     -178.650      75.211    -126.460
  C     -177.013      76.472    -128.012
  O     -177.367      75.229    -127.419
  O     -179.941      75.513    -127.141
  O     -178.583      73.751    -125.820
  H     -179.436      73.457    -125.417
  H     -176.145      76.341    -128.623
  H     -176.804      77.187    -127.244
  H     -177.824      76.823    -128.615

 6  7  8  9  10  11  12  13  14  15  26  29  33  34 0
 6-311+G(2d,p)
 ****
 36  38  39  40  41 0
 6-311+G(2d,p)
 ****
 1  2  3  4  5  16  17  18  19  20  21  22  23  24  25 0
 3-21G
 ****
 27  28  30  31  32  35  37  42  43  44  45  46  47 0
 3-21G
 ****
 48  49 0
 3-21G
 ****


