%nproc=1
%NoSave
%Mem=1900MB
#P OB98/GEN NMR

erre ene a

0 1
  C      449.109     621.670    -269.544
  O      448.378     622.004    -268.381
  H      448.595     622.035    -270.434
  H      450.094     622.142    -269.488
  H      449.245     620.583    -269.607
  P      446.879     621.427    -268.281
  C      445.545     623.388    -269.348
  O      445.940     622.722    -268.157
  C      445.188     624.833    -269.021
  O      443.929     624.891    -268.317
  C      446.203     625.529    -268.123
  O      447.319     626.023    -268.844
  C      445.355     626.669    -267.570
  O      445.219     627.697    -268.556
  C      444.007     625.966    -267.328
  N      443.702     627.025    -262.333
  C      443.770     627.826    -263.425
  N      443.832     627.463    -264.721
  C      443.800     626.126    -264.844
  C      443.715     625.190    -263.826
  C      443.674     625.687    -262.504
  N      443.630     624.873    -261.393
  N      443.725     623.908    -264.343
  C      443.792     624.076    -265.654
  N      443.871     625.400    -265.998
  O      446.815     620.790    -266.812
  O      446.476     620.470    -269.351
  H      444.950     627.270    -269.392
  H      446.029     620.219    -266.722
  H      443.791     628.893    -263.223
  H      443.797     623.279    -266.381
  H      443.147     626.632    -267.494
  H      445.801     627.126    -266.686
  H      446.515     624.883    -267.296
  H      445.054     625.380    -269.968
  H      444.666     622.883    -269.769
  H      443.754     625.325    -260.500
  H      443.757     623.881    -261.514
  H      446.359     623.358    -270.074
  P      448.787     625.726    -268.239
  C      448.827     628.203    -267.483
  O      449.524     627.147    -268.120
  O      449.529     625.018    -269.466
  O      448.782     624.882    -267.009
  H      450.183     624.361    -269.151
  H      449.438     629.082    -267.478
  H      448.597     627.922    -266.476
  H      447.920     628.403    -268.014

 6  7  8  9  10  11  12  13  14  15  25  28  32  33  34  35 0
 6-311+G(2d,p)
 ****
 36  39  40 0
 6-311+G(2d,p)
 ****
 1  2  3  4  5  16  17  18  19  20  21  22  23  24 0
 3-21G
 ****
 26  27  29  30  31  37  38  41  42  43  44  45  46  47 0
 3-21G
 ****
 48 0
 3-21G
 ****


