%nproc=1
%NoSave
%Mem=1900MB
#P OB98/GEN NMR

erre ene a

0 1
  C      -15.516      -0.530    -165.919
  O      -15.284      -1.915    -166.117
  P      -13.804      -2.382    -166.523
  C      -14.696      -3.062    -168.867
  O      -13.701      -2.365    -168.127
  C      -14.563      -2.771    -170.363
  O      -14.679      -1.340    -170.590
  C      -13.225      -3.218    -170.962
  O      -13.432      -3.645    -172.318
  C      -12.411      -1.941    -171.007
  O      -11.377      -2.012    -171.987
  C      -13.505      -0.918    -171.316
  N       -9.916       2.628    -171.672
  C      -10.087       1.472    -172.410
  N       -9.117       1.187    -173.307
  N      -11.116       0.676    -172.287
  C      -12.001       1.090    -171.346
  C      -11.951       2.219    -170.561
  C      -10.799       3.084    -170.700
  O      -10.574       4.107    -170.055
  N      -13.051       2.318    -169.748
  C      -13.748       1.225    -170.006
  N      -13.135       0.432    -170.941
  O      -13.812      -3.944    -166.161
  O      -12.706      -1.673    -165.804
  H      -11.025      -1.107    -172.097
  H      -13.298      -4.095    -165.343
  H       -9.099       3.204    -171.795
  H      -14.682       0.953    -169.529
  H      -13.761      -0.913    -172.383
  H      -11.949      -1.752    -170.033
  H       -8.268       1.722    -173.404
  H      -12.722      -4.016    -170.403
  H       -9.196       0.322    -173.831
  H      -15.401      -3.248    -170.887
  H      -15.681      -2.744    -168.526
  H      -14.601      -4.139    -168.683
  P      -12.532      -4.884    -172.809
  C      -10.712      -3.298    -173.787
  O      -11.027      -4.332    -172.879
  O      -12.947      -5.051    -174.345
  O      -12.732      -6.136    -172.020
  H      -12.796      -5.973    -174.636
  H      -10.391      -2.415    -173.224
  H      -11.565      -3.023    -174.415
  H       -9.894      -3.627    -174.431
  H      -16.541      -0.374    -165.655
  H      -15.295       0.001    -166.821
  H      -14.886      -0.172    -165.131

 3  4  5  6  7  8  9  10  11  12  23  26  30  31 0
 6-311+G(2d,p)
 ****
 33  35  36  37  38 0
 6-311+G(2d,p)
 ****
 1  2  13  14  15  16  17  18  19  20  21  22  24  25 0
 3-21G
 ****
 27  28  29  32  34  39  40  41  42  43  44  45  46  47  48  49 0
 3-21G
 ****


