%nproc=1
%NoSave
%Mem=1900MB
#P OB98/GEN NMR

erre ene a

0 1
  C      352.174     325.476    -391.292
  O      353.400     325.171    -391.928
  P      354.589     326.258    -391.808
  C      354.210     326.910    -394.288
  O      355.136     326.490    -393.299
  C      354.597     326.377    -395.682
  O      355.956     326.803    -395.982
  C      354.548     324.850    -395.792
  O      354.081     324.521    -397.110
  C      356.006     324.435    -395.677
  O      356.242     323.165    -396.295
  C      356.711     325.626    -396.333
  N      358.102     325.748    -395.931
  C      359.042     324.952    -396.613
  O      358.662     324.139    -397.463
  N      360.369     325.062    -396.282
  C      360.718     325.805    -395.272
  N      362.056     325.887    -394.995
  C      359.752     326.568    -394.450
  C      358.479     326.501    -394.842
  O      355.753     325.418    -391.105
  O      354.227     327.483    -391.041
  H      356.022     323.234    -397.249
  H      356.308     325.988    -390.536
  H      360.095     327.151    -393.610
  H      357.695     327.045    -394.306
  H      356.676     325.535    -397.441
  H      356.292     324.365    -394.623
  H      353.894     324.378    -395.053
  H      353.942     326.840    -396.418
  H      362.687     325.344    -395.558
  H      354.206     328.000    -394.346
  H      362.416     326.445    -394.231
  H      353.201     326.576    -394.021
  P      352.671     323.765    -397.237
  C      353.679     321.562    -398.092
  O      352.883     322.686    -398.403
  O      351.777     324.868    -397.985
  O      352.005     323.291    -395.994
  H      350.856     324.548    -398.065
  H      353.625     320.842    -398.915
  H      353.314     321.063    -397.178
  H      354.721     321.858    -397.951
  H      351.481     324.676    -391.451
  H      351.775     326.380    -391.702
  H      352.339     325.602    -390.242

 3  4  5  6  7  8  9  10  11  12  13  21  23  27  28  29  30  32 0
 6-311+G(2d,p)
 ****
 34  35 0
 6-311+G(2d,p)
 ****
 1  2  14  15  16  17  18  19  20  22  24  25  26 0
 3-21G
 ****
 31  33  36  37  38  39  40  41  42  43  44  45  46 0
 3-21G
 ****


