%nproc=1
%NoSave
%Mem=1900MB
#P OB98/GEN NMR

erre ene a

0 1
  C       15.515      61.035     -26.132
  O       16.712      61.304     -26.832
  P       16.781      61.475     -28.420
  C       17.430      63.990     -28.315
  O       16.496      63.019     -28.772
  C       17.008      65.430     -28.639
  O       15.869      65.790     -27.832
  C       18.129      66.406     -28.264
  O       19.198      66.641     -29.158
  C       17.414      67.662     -27.778
  O       17.324      68.667     -28.789
  C       16.019      67.153     -27.403
  N       14.598      70.131     -23.551
  C       14.499      70.361     -24.911
  N       14.155      71.615     -25.277
  N       14.739      69.450     -25.819
  C       15.169      68.272     -25.301
  C       15.290      67.923     -23.976
  C       14.981      68.926     -22.983
  O       15.137      68.790     -21.771
  N       15.823      66.667     -23.826
  C       16.060      66.269     -25.060
  N       15.717      67.226     -25.987
  O       16.113      60.418     -29.239
  O       18.370      61.357     -28.680
  H       16.771      68.316     -29.513
  H       18.493      60.917     -29.543
  H       14.473      70.897     -22.900
  H       16.509      65.320     -25.332
  H       15.244      67.731     -27.926
  H       17.953      68.116     -26.937
  H       14.104      72.375     -24.614
  H       18.617      65.998     -27.369
  H       14.237      71.866     -26.257
  H       16.677      65.519     -29.679
  H       18.396      63.756     -28.775
  H       17.560      63.890     -27.232
  P       20.609      65.884     -29.171
  C       20.643      65.700     -31.723
  O       20.693      64.989     -30.496
  O       20.481      64.788     -28.008
  O       21.794      66.763     -28.927
  H       21.368      64.526     -27.702
  H       20.403      65.002     -32.529
  H       21.623      66.152     -31.922
  H       19.880      66.485     -31.691
  H       15.722      60.964     -25.085
  H       15.100      60.111     -26.477
  H       14.816      61.826     -26.304

 3  4  5  6  7  8  9  10  11  12  23  26  30  31 0
 6-311+G(2d,p)
 ****
 33  35  36  37  38 0
 6-311+G(2d,p)
 ****
 1  2  13  14  15  16  17  18  19  20  21  22  24  25 0
 3-21G
 ****
 27  28  29  32  34  39  40  41  42  43  44  45  46  47  48  49 0
 3-21G
 ****


