%nproc=1
%NoSave
%Mem=1900MB
#P OB98/GEN NMR

erre ene a

0 1
  C      143.150    -338.237    -221.135
  O      142.437    -339.111    -220.280
  H      143.941    -337.748    -220.559
  H      142.477    -337.468    -221.525
  H      143.608    -338.782    -221.962
  P      141.402    -340.150    -220.925
  C      139.251    -338.972    -220.111
  O      140.060    -339.330    -221.230
  C      137.774    -339.195    -220.419
  O      136.990    -338.781    -219.254
  C      137.249    -338.389    -221.626
  O      136.211    -339.165    -222.246
  C      136.668    -337.171    -220.934
  O      135.845    -336.420    -221.795
  C      136.000    -337.838    -219.728
  N      135.616    -336.901    -218.685
  C      134.719    -335.899    -219.031
  O      134.224    -335.766    -220.150
  N      134.407    -335.008    -218.032
  C      134.895    -335.031    -216.759
  O      134.565    -334.225    -215.900
  C      135.861    -336.101    -216.463
  C      136.172    -336.975    -217.416
  O      141.209    -341.425    -220.170
  O      141.994    -340.421    -222.388
  H      142.513    -341.249    -222.384
  H      136.356    -336.110    -222.579
  H      133.752    -334.271    -218.267
  H      136.282    -336.131    -215.465
  H      136.884    -337.775    -217.239
  H      135.129    -338.418    -220.044
  H      137.472    -336.502    -220.612
  H      138.028    -338.166    -222.362
  H      137.595    -340.270    -220.553
  H      139.430    -337.913    -219.895
  H      139.548    -339.573    -219.247
  P      136.470    -340.116    -223.518
  C      137.054    -338.332    -225.290
  O      137.531    -339.414    -224.504
  O      135.210    -340.542    -224.211
  O      137.256    -341.389    -222.953
  H      136.969    -342.186    -223.439
  H      137.850    -337.955    -225.898
  H      136.697    -337.555    -224.647
  H      136.256    -338.671    -225.917

 6  7  8  9  10  11  12  13  14  15  16  27  31  32  33  34  35 0
 6-311+G(2d,p)
 ****
 36  37 0
 6-311+G(2d,p)
 ****
 1  2  3  4  5  17  18  19  20  21  22  23  24  25 0
 3-21G
 ****
 26  28  29  30  38  39  40  41  42  43  44  45 0
 3-21G
 ****


