%nproc=1
%NoSave
%Mem=1900MB
#P OB98/GEN NMR

erre ene a

0 1
  C     -523.860     -43.189       1.561
  O     -524.435     -41.907       1.755
  H     -524.245     -43.867       2.322
  H     -522.771     -43.119       1.666
  H     -524.118     -43.583       0.573
  P     -524.269     -40.846       0.561
  C     -526.537     -39.635       0.940
  O     -525.119     -39.549       0.984
  C     -527.158     -38.532       1.800
  O     -527.039     -38.851       3.193
  C     -526.531     -37.157       1.605
  O     -527.062     -36.483       0.476
  C     -526.949     -36.474       2.901
  O     -528.338     -36.071       2.806
  C     -526.801     -37.613       3.925
  N     -523.867     -35.759       7.627
  C     -525.136     -35.385       7.236
  N     -525.707     -34.371       7.923
  N     -525.795     -35.957       6.252
  C     -525.088     -36.942       5.638
  C     -523.818     -37.395       5.934
  C     -523.116     -36.769       7.029
  O     -521.988     -37.064       7.423
  N     -523.438     -38.409       5.092
  C     -524.467     -38.548       4.279
  N     -525.497     -37.681       4.567
  O     -525.135     -41.498      -0.618
  O     -522.859     -40.594       0.126
  H     -528.417     -35.513       2.015
  H     -524.527     -41.922      -1.258
  H     -523.394     -35.281       8.381
  H     -524.524     -39.271       3.478
  H     -527.554     -37.552       4.727
  H     -526.368     -35.571       3.112
  H     -525.245     -33.875       8.677
  H     -525.427     -37.217       1.565
  H     -526.642     -34.081       7.653
  H     -528.238     -38.499       1.565
  H     -526.849     -40.612       1.322
  H     -526.867     -39.531      -0.099
  P     -526.041     -35.927      -0.632
  C     -527.637     -36.132      -2.668
  O     -526.930     -35.262      -1.798
  O     -525.488     -37.271      -1.305
  O     -524.931     -35.079      -0.109
  H     -524.545     -37.398      -1.078
  H     -528.180     -35.554      -3.387
  H     -528.321     -36.727      -2.099
  H     -526.944     -36.771      -3.174

 6  7  8  9  10  11  12  13  14  15  26  29  33  34 0
 6-311+G(2d,p)
 ****
 36  38  39  40  41 0
 6-311+G(2d,p)
 ****
 1  2  3  4  5  16  17  18  19  20  21  22  23  24  25 0
 3-21G
 ****
 27  28  30  31  32  35  37  42  43  44  45  46  47 0
 3-21G
 ****
 48  49 0
 3-21G
 ****


