%nproc=1
%NoSave
%Mem=1900MB
#P OB98/GEN NMR

erre ene a

0 1
  C      118.685     494.975     305.553
  O      118.251     496.276     305.904
  H      119.714     495.008     305.188
  H      118.646     494.339     306.446
  H      118.026     494.556     304.789
  P      118.269     497.385     304.746
  C      115.852     498.325     304.650
  O      116.793     497.411     304.098
  C      114.715     497.566     305.327
  O      115.268     496.805     306.430
  C      113.583     498.449     305.883
  O      112.330     498.088     305.301
  C      113.531     498.125     307.363
  O      112.214     498.041     307.884
  C      114.262     496.790     307.456
  N      113.288     495.657     312.332
  C      112.604     495.397     311.198
  N      112.964     495.629     309.916
  C      114.199     496.168     309.870
  C      115.034     496.468     310.943
  C      114.524     496.208     312.218
  N      115.206     496.521     313.379
  N      116.227     497.021     310.488
  C      116.095     497.100     309.180
  N      114.876     496.609     308.764
  O      119.166     496.703     303.601
  O      118.806     498.717     305.145
  H      112.295     497.852     308.834
  H      119.833     497.338     303.283
  H      111.619     494.945     311.337
  H      116.810     497.531     308.494
  H      113.603     495.941     307.273
  H      114.070     498.914     307.915
  H      113.768     499.524     305.718
  H      114.308     496.837     304.605
  H      115.431     498.945     303.845
  H      114.718     496.406     314.253
  H      116.080     497.032     313.308
  H      116.363     498.978     305.364
  P      111.971     498.738     303.874
  C      111.651     496.674     302.322
  O      112.498     497.733     302.729
  O      112.999     499.969     303.779
  O      110.554     499.184     303.750
  H      112.629     500.676     303.212
  H      112.138     496.100     301.562
  H      110.738     497.076     301.935
  H      111.437     496.046     303.161

 6  7  8  9  10  11  12  13  14  15  25  28  32  33  34  35 0
 6-311+G(2d,p)
 ****
 36  39  40 0
 6-311+G(2d,p)
 ****
 1  2  3  4  5  16  17  18  19  20  21  22  23  24 0
 3-21G
 ****
 26  27  29  30  31  37  38  41  42  43  44  45  46  47  48 0
 3-21G
 ****


