%nproc=1
%NoSave
%Mem=1900MB
#P OB98/GEN NMR

erre ene a

0 1
  C        0.358    -210.284     -97.595
  O        1.643    -209.657     -97.700
  P        1.974    -208.501     -98.764
  C        1.875    -206.437     -97.222
  O        1.270    -207.134     -98.302
  C        0.976    -205.313     -96.694
  O        1.112    -204.126     -97.535
  C       -0.521    -205.668     -96.642
  O       -1.041    -205.073     -95.449
  C       -1.052    -204.976     -97.888
  O       -2.454    -204.784     -97.879
  C       -0.228    -203.686     -97.840
  N       -0.243    -202.887     -99.061
  C       -0.789    -201.599     -98.990
  O       -1.293    -201.173     -97.953
  N       -0.770    -200.817    -100.120
  C       -0.263    -201.274    -101.221
  N       -0.269    -200.443    -102.297
  C        0.303    -202.627    -101.345
  C        0.283    -203.368    -100.239
  O        1.662    -208.879    -100.176
  O        3.538    -208.202     -98.596
  H        3.920    -207.991     -99.469
  H       -2.654    -204.063     -97.254
  H        0.722    -202.966    -102.280
  H        0.708    -204.367    -100.241
  H       -0.564    -203.072     -96.997
  H       -0.805    -205.587     -98.761
  H       -0.715    -206.745     -96.613
  H        1.336    -205.033     -95.697
  H       -0.657    -199.516    -102.171
  H        2.815    -206.001     -97.574
  H        0.107    -200.692    -103.200
  H        2.106    -207.149     -96.422
  P       -2.054    -205.905     -94.525
  C       -0.979    -205.200     -92.259
  O       -1.293    -206.245     -93.156
  O       -2.068    -207.334     -95.255
  O       -3.444    -205.368     -94.417
  H       -2.908    -207.786     -95.056
  H       -1.227    -205.523     -91.245
  H       -1.532    -204.284     -92.479
  H        0.092    -204.994     -92.314
  H        0.382    -211.019     -96.818
  H        0.114    -210.755     -98.524
  H       -0.381    -209.546     -97.364

 3  4  5  6  7  8  9  10  11  12  13  24  27  28  29  30  32 0
 6-311+G(2d,p)
 ****
 34  35 0
 6-311+G(2d,p)
 ****
 1  2  14  15  16  17  18  19  20  21  22  23  25  26 0
 3-21G
 ****
 31  33  36  37  38  39  40  41  42  43  44  45  46 0
 3-21G
 ****


