%nproc=1
%NoSave
%Mem=1900MB
#P OB98/GEN NMR

erre ene a

0 1
  C      -19.196      90.672    -340.315
  O      -18.143      89.725    -340.274
  H      -18.837      91.574    -340.819
  H      -19.510      90.940    -339.303
  H      -20.049      90.274    -340.873
  P      -18.421      88.312    -339.576
  C      -16.910      86.927    -341.152
  O      -17.107      87.426    -339.833
  C      -15.426      86.669    -341.397
  O      -14.751      87.900    -341.749
  C      -14.683      86.109    -340.181
  O      -14.896      84.711    -340.073
  C      -13.246      86.474    -340.543
  O      -12.753      85.555    -341.537
  C      -13.425      87.873    -341.155
  N      -10.847      89.771    -337.212
  C      -10.681      88.580    -337.892
  N       -9.714      87.753    -337.429
  N      -11.405      88.220    -338.923
  C      -12.380      89.109    -339.226
  C      -12.655      90.313    -338.618
  C      -11.810      90.731    -337.520
  O      -11.911      91.781    -336.896
  N      -13.765      90.914    -339.163
  C      -14.134      90.091    -340.127
  N      -13.331      88.971    -340.194
  O      -19.697      87.620    -339.958
  O      -18.352      88.631    -338.009
  H      -12.745      84.674    -341.113
  H      -19.238      88.838    -337.651
  H      -10.264      89.976    -336.420
  H      -14.964      90.254    -340.802
  H      -12.705      88.076    -341.951
  H      -12.570      86.432    -339.694
  H       -9.328      87.849    -336.496
  H      -14.954      86.649    -339.255
  H       -9.603      86.858    -337.886
  H      -15.336      85.990    -342.260
  H      -17.284      87.682    -341.852
  H      -17.473      86.006    -341.297
  P      -14.275      83.871    -338.850
  C      -16.312      82.404    -338.235
  O      -15.042      82.466    -338.883
  O      -14.305      84.571    -337.524
  O      -12.806      83.479    -339.339
  H      -12.115      84.158    -339.119
  H      -16.713      81.417    -338.331
  H      -16.979      83.106    -338.690
  H      -16.196      82.643    -337.199

 6  7  8  9  10  11  12  13  14  15  26  29  33  34 0
 6-311+G(2d,p)
 ****
 36  38  39  40  41 0
 6-311+G(2d,p)
 ****
 1  2  3  4  5  16  17  18  19  20  21  22  23  24  25 0
 3-21G
 ****
 27  28  30  31  32  35  37  42  43  44  45  46  47 0
 3-21G
 ****
 48  49 0
 3-21G
 ****


