%nproc=1
%NoSave
%Mem=1900MB
#P OB98/GEN NMR

erre ene a

0 1
  C      -12.571     -93.975      67.611
  O      -12.228     -92.658      67.160
  P      -11.826     -91.564      68.262
  C      -13.345     -89.499      67.806
  O      -12.069     -90.103      67.646
  C      -13.767     -88.790      66.516
  O      -14.225     -89.724      65.518
  C      -14.914     -87.809      66.704
  O      -14.454     -86.559      67.195
  C      -15.416     -87.660      65.276
  O      -14.566     -86.748      64.552
  C      -15.254     -89.083      64.728
  N      -19.499     -90.505      62.239
  C      -18.496     -89.663      61.903
  N      -17.409     -89.321      62.627
  C      -17.405     -89.960      63.808
  C      -18.358     -90.845      64.287
  C      -19.447     -91.116      63.445
  N      -20.466     -91.976      63.792
  N      -18.020     -91.293      65.548
  C      -16.873     -90.700      65.818
  N      -16.467     -89.877      64.800
  O      -10.231     -91.679      68.319
  O      -12.440     -91.804      69.603
  H      -13.653     -86.909      64.857
  H       -9.920     -91.515      69.229
  H      -18.578     -89.202      60.922
  H      -16.306     -90.834      66.727
  H      -14.922     -89.092      63.682
  H      -16.430     -87.258      65.226
  H      -15.699     -88.241      67.338
  H      -12.891     -88.261      66.118
  H      -13.322     -88.787      68.635
  H      -21.200     -92.141      63.124
  H      -20.421     -92.452      64.682
  H      -14.070     -90.271      68.084
  P      -15.539     -85.596      67.883
  C      -14.990     -83.688      66.206
  O      -15.061     -84.102      67.557
  O      -15.237     -85.770      69.445
  O      -16.956     -85.922      67.543
  H      -16.059     -85.647      69.959
  H      -14.951     -82.594      66.175
  H      -15.866     -84.023      65.643
  H      -14.082     -84.087      65.744
  H      -12.814     -94.588      66.769
  H      -13.415     -93.919      68.267
  H      -11.740     -94.401      68.134

 3  4  5  6  7  8  9  10  11  12  22  25  29  30  31  32 0
 6-311+G(2d,p)
 ****
 33  36  37 0
 6-311+G(2d,p)
 ****
 1  2  13  14  15  16  17  18  19  20  21  23  24  26 0
 3-21G
 ****
 27  28  34  35  38  39  40  41  42  43  44  45  46  47  48 0
 3-21G
 ****


