%nproc=1
%NoSave
%Mem=1900MB
#P OB98/GEN NMR

erre ene a

0 1
  C      134.683      33.288      31.322
  O      134.084      32.311      30.495
  H      135.540      33.714      30.796
  H      135.035      32.830      32.251
  H      133.977      34.092      31.548
  P      132.683      31.672      30.943
  C      133.904      29.503      31.621
  O      133.016      30.538      32.026
  C      134.367      28.709      32.840
  O      134.949      29.594      33.820
  C      133.243      27.972      33.564
  O      132.861      26.810      32.849
  C      133.902      27.708      34.911
  O      134.779      26.575      34.839
  C      134.702      29.015      35.124
  N      134.026      29.969      35.999
  C      134.075      29.702      37.365
  O      134.620      28.701      37.832
  N      133.459      30.618      38.178
  C      132.743      31.704      37.762
  O      132.165      32.465      38.532
  C      132.696      31.919      36.307
  C      133.328      31.058      35.508
  O      131.785      31.235      29.833
  O      132.009      32.825      31.826
  H      135.251      26.534      35.696
  H      131.346      33.302      31.293
  H      133.476      30.431      39.170
  H      132.131      32.766      35.944
  H      133.299      31.194      34.432
  H      135.685      28.791      35.558
  H      133.175      27.494      35.698
  H      132.386      28.638      33.715
  H      135.148      28.007      32.514
  H      134.773      29.956      31.131
  H      133.390      28.854      30.908
  P      131.317      26.455      32.636
  C      131.661      24.712      34.485
  O      130.800      25.718      33.969
  O      130.996      25.736      31.367
  O      130.578      27.876      32.698
  H      130.300      28.143      31.799
  H      131.226      24.288      35.366
  H      132.609      25.144      34.728
  H      131.796      23.946      33.750

 6  7  8  9  10  11  12  13  14  15  16  26  31  32  33  34  35 0
 6-311+G(2d,p)
 ****
 36  37 0
 6-311+G(2d,p)
 ****
 1  2  3  4  5  17  18  19  20  21  22  23  24  25 0
 3-21G
 ****
 27  28  29  30  38  39  40  41  42  43  44  45 0
 3-21G
 ****


