%nproc=1
%NoSave
%Mem=1900MB
#P OB98/GEN NMR

erre ene a

0 1
  C       14.632    -544.012     400.847
  O       13.820    -543.277     401.772
  P       14.315    -541.889     402.416
  C       16.211    -542.859     403.853
  O       15.877    -541.968     402.793
  C       17.367    -542.353     404.731
  O       17.604    -543.250     405.852
  C       18.712    -542.196     403.998
  O       19.386    -541.113     404.636
  C       19.397    -543.520     404.317
  O       20.807    -543.481     404.124
  C       18.966    -543.717     405.765
  N       22.159    -547.595     406.779
  C       22.383    -546.275     406.561
  N       21.478    -545.303     406.338
  C       20.228    -545.787     406.389
  C       19.847    -547.101     406.606
  C       20.882    -548.037     406.798
  N       20.659    -549.383     406.971
  N       18.468    -547.230     406.557
  C       18.033    -546.005     406.303
  N       19.056    -545.103     406.192
  O       13.446    -541.387     403.528
  O       14.285    -540.853     401.192
  H       21.164    -542.748     404.657
  H       13.859    -540.026     401.486
  H       23.428    -545.969     406.565
  H       16.989    -545.728     406.165
  H       19.574    -543.114     406.449
  H       18.993    -544.299     403.659
  H       18.602    -542.017     402.926
  H       17.058    -541.394     405.159
  H       16.480    -543.834     403.425
  H       21.471    -549.988     407.010
  H       19.724    -549.750     406.861
  H       15.317    -543.006     404.480
  P       19.358    -539.629     404.036
  C       21.740    -539.656     403.107
  O       20.366    -539.624     402.789
  O       19.590    -538.538     405.029
  O       17.917    -539.497     403.344
  H       17.695    -538.552     403.222
  H       22.067    -538.667     403.448
  H       22.314    -539.929     402.213
  H       21.950    -540.396     403.895
  H       14.115    -544.899     400.545
  H       15.555    -544.280     401.317
  H       14.832    -543.406     399.988

 3  4  5  6  7  8  9  10  11  12  22  25  29  30  31  32 0
 6-311+G(2d,p)
 ****
 33  36  37 0
 6-311+G(2d,p)
 ****
 1  2  13  14  15  16  17  18  19  20  21  23  24  26 0
 3-21G
 ****
 27  28  34  35  38  39  40  41  42  43  44  45  46  47  48 0
 3-21G
 ****


