%nproc=1
%NoSave
%Mem=1900MB
#P OB98/GEN NMR

erre ene a

0 1
  C     -154.041     339.269     239.072
  O     -155.319     339.700     239.507
  P     -155.711     341.243     239.322
  C     -154.738     341.892     241.680
  O     -155.852     341.863     240.798
  C     -155.070     342.723     242.922
  O     -153.973     342.605     243.877
  C     -155.270     344.229     242.644
  O     -156.287     344.694     243.550
  C     -153.918     344.821     243.013
  O     -153.990     346.207     243.308
  C     -153.531     343.937     244.204
  N     -152.096     343.945     244.490
  C     -151.641     344.773     245.514
  O     -152.369     345.519     246.177
  N     -150.286     344.743     245.744
  C     -149.357     344.041     245.027
  O     -148.155     344.064     245.269
  C     -149.894     343.219     243.932
  C     -151.217     343.197     243.727
  O     -157.221     341.118     238.812
  O     -154.798     341.993     238.410
  H     -157.705     340.374     239.224
  H     -154.357     346.664     242.524
  H     -149.938     345.308     246.502
  H     -149.189     342.653     243.323
  H     -151.633     342.602     242.919
  H     -154.088     344.252     245.102
  H     -153.223     344.691     242.171
  H     -155.570     344.429     241.614
  H     -155.965     342.302     243.400
  H     -153.882     342.339     241.167
  H     -154.474     340.866     241.957
  P     -157.487     345.584     242.948
  C     -156.161     347.834     243.173
  O     -157.306     347.068     243.506
  O     -158.715     345.018     243.820
  O     -157.703     345.432     241.477
  H     -158.522     344.981     244.772
  H     -156.368     348.891     243.356
  H     -155.875     347.705     242.129
  H     -155.328     347.528     243.817
  H     -153.933     338.222     239.264
  H     -153.283     339.808     239.602
  H     -153.941     339.452     238.022

 3  4  5  6  7  8  9  10  11  12  13  24  28  29  30  31  32 0
 6-311+G(2d,p)
 ****
 33  34 0
 6-311+G(2d,p)
 ****
 1  2  14  15  16  17  18  19  20  21  22  23  25  26  27 0
 3-21G
 ****
 35  36  37  38  39  40  41  42  43  44  45 0
 3-21G
 ****


