%nproc=1
%NoSave
%Mem=1900MB
#P OB98/GEN NMR

erre ene a

0 1
  C      -91.045    -946.930    -242.118
  O      -92.435    -946.869    -241.892
  H      -90.548    -946.278    -241.398
  H      -90.808    -946.581    -243.124
  H      -90.675    -947.949    -241.980
  P      -93.401    -947.745    -242.826
  C      -93.729    -949.440    -240.893
  O      -93.289    -949.233    -242.226
  C      -92.580    -949.949    -240.031
  O      -91.665    -948.884    -239.689
  C      -92.995    -950.540    -238.687
  O      -93.606    -951.815    -238.785
  C      -91.645    -950.590    -237.994
  O      -90.882    -951.696    -238.510
  C      -91.039    -949.238    -238.425
  N      -91.260    -948.182    -237.433
  C      -90.682    -948.377    -236.169
  O      -90.037    -949.399    -235.925
  N      -90.880    -947.429    -235.201
  C      -91.603    -946.384    -235.451
  N      -91.774    -945.479    -234.452
  C      -92.247    -946.148    -236.764
  C      -92.034    -947.075    -237.693
  O      -93.176    -947.629    -244.298
  O      -94.884    -947.328    -242.375
  H      -90.075    -951.762    -237.970
  H      -95.523    -947.836    -242.933
  H      -92.868    -945.279    -236.914
  H      -92.478    -946.972    -238.678
  H      -89.962    -949.330    -238.607
  H      -91.720    -950.729    -236.914
  H      -93.641    -949.841    -238.138
  H      -92.015    -950.677    -240.630
  H      -91.326    -945.670    -233.564
  H      -94.553    -950.160    -240.913
  H      -92.388    -944.678    -234.536
  H      -94.092    -948.498    -240.469
  P      -94.911    -952.073    -237.880
  C      -96.276    -953.030    -239.885
  O      -96.161    -952.037    -238.885
  O      -95.048    -950.715    -237.046
  O      -94.856    -953.285    -237.010
  H      -94.670    -950.827    -236.149
  H      -97.161    -952.856    -240.461
  H      -96.334    -953.994    -239.425
  H      -95.420    -952.992    -240.526

 6  7  8  9  10  11  12  13  14  15  16  26  30  31  32  33  35 0
 6-311+G(2d,p)
 ****
 37  38 0
 6-311+G(2d,p)
 ****
 1  2  3  4  5  17  18  19  20  21  22  23  24  25 0
 3-21G
 ****
 27  28  29  34  36  39  40  41  42  43  44  45  46 0
 3-21G
 ****


