%nproc=1
%NoSave
%Mem=1900MB
#P OB98/GEN NMR

erre ene a

0 1
  C     -270.003    -322.482       7.080
  O     -270.393    -323.837       7.313
  P     -270.122    -325.055       6.318
  C     -270.997    -325.711       3.924
  O     -271.205    -325.004       5.143
  C     -272.223    -325.596       3.003
  O     -273.344    -326.296       3.637
  C     -272.662    -324.143       2.783
  O     -273.030    -323.863       1.434
  C     -273.728    -323.946       3.852
  O     -274.592    -322.850       3.587
  C     -274.382    -325.325       3.908
  N     -278.671    -326.597       6.376
  C     -278.487    -326.267       5.046
  N     -279.598    -326.248       4.271
  N     -277.332    -325.951       4.529
  C     -276.323    -325.927       5.426
  C     -276.381    -326.225       6.774
  C     -277.658    -326.616       7.327
  O     -277.867    -326.940       8.490
  N     -275.145    -326.099       7.364
  C     -274.349    -325.709       6.386
  N     -275.019    -325.597       5.183
  O     -269.888    -326.382       6.962
  O     -268.754    -324.633       5.568
  H     -274.069    -322.027       3.690
  H     -268.286    -325.469       5.368
  H     -279.583    -326.852       6.717
  H     -273.291    -325.514       6.480
  H     -275.164    -325.439       3.152
  H     -273.211    -323.726       4.797
  H     -280.537    -326.358       4.632
  H     -271.829    -323.452       2.972
  H     -279.497    -325.795       3.361
  H     -271.998    -326.103       2.058
  H     -270.836    -326.758       4.205
  H     -270.094    -325.359       3.427
  P     -272.695    -322.568       0.556
  C     -273.447    -320.127       0.376
  O     -273.678    -321.384       0.982
  O     -273.194    -322.937      -0.922
  O     -271.238    -322.196       0.536
  H     -272.430    -322.929      -1.541
  H     -273.996    -319.355       0.936
  H     -273.818    -320.143      -0.650
  H     -272.384    -319.877       0.382
  H     -270.309    -321.876       7.907
  H     -270.469    -322.126       6.185
  H     -268.940    -322.430       6.974

 3  4  5  6  7  8  9  10  11  12  23  26  30  31 0
 6-311+G(2d,p)
 ****
 33  35  36  37  38 0
 6-311+G(2d,p)
 ****
 1  2  13  14  15  16  17  18  19  20  21  22  24  25 0
 3-21G
 ****
 27  28  29  32  34  39  40  41  42  43  44  45  46  47  48  49 0
 3-21G
 ****


