%nproc=1
%NoSave
%Mem=1900MB
#P OB98/GEN NMR

erre ene a

0 1
  C      -53.502     -95.736    -731.712
  O      -52.995     -96.730    -730.837
  P      -53.177     -98.264    -731.280
  C      -51.399     -98.422    -733.180
  O      -52.776     -98.344    -732.834
  C      -50.999     -99.885    -733.425
  O      -51.242    -100.663    -732.239
  C      -51.776    -100.571    -734.536
  O      -51.321    -100.155    -735.816
  C      -51.493    -102.029    -734.205
  O      -50.186    -102.399    -734.669
  C      -51.522    -102.022    -732.664
  N      -53.890    -104.721    -729.004
  C      -52.581    -104.542    -729.289
  N      -52.031    -103.828    -730.293
  C      -52.984    -103.251    -731.049
  C      -54.352    -103.366    -730.888
  C      -54.808    -104.137    -729.811
  N      -56.143    -104.324    -729.526
  N      -55.014    -102.654    -731.872
  C      -54.059    -102.118    -732.603
  N      -52.814    -102.434    -732.131
  O      -54.762     -98.449    -731.301
  O      -52.499     -99.258    -730.392
  H      -50.058    -103.341    -734.458
  H      -55.013     -99.357    -731.033
  H      -51.880    -105.042    -728.629
  H      -54.219    -101.486    -733.465
  H      -50.760    -102.676    -732.222
  H      -52.211    -102.724    -734.665
  H      -52.850    -100.359    -734.439
  H      -49.923     -99.902    -733.638
  H      -50.790     -98.025    -732.360
  H      -56.382    -105.008    -728.827
  H      -56.823    -104.006    -730.209
  H      -51.218     -97.814    -734.069
  P      -52.357    -100.266    -737.036
  C      -53.373     -97.983    -736.438
  O      -53.607     -99.381    -736.560
  O      -52.907    -101.758    -736.854
  O      -51.786     -99.928    -738.375
  H      -53.167    -101.943    -735.942
  H      -54.309     -97.488    -736.162
  H      -53.022     -97.571    -737.386
  H      -52.636     -97.795    -735.654
  H      -53.315     -94.767    -731.298
  H      -54.556     -95.874    -731.836
  H      -53.018     -95.817    -732.663

 3  4  5  6  7  8  9  10  11  12  22  25  29  30  31  32 0
 6-311+G(2d,p)
 ****
 33  36  37 0
 6-311+G(2d,p)
 ****
 1  2  13  14  15  16  17  18  19  20  21  23  24  26 0
 3-21G
 ****
 27  28  34  35  38  39  40  41  42  43  44  45  46  47  48 0
 3-21G
 ****


