%nproc=1
%NoSave
%Mem=1900MB
#P OB98/GEN NMR

erre ene a

0 1
  C      -52.543     -49.054      83.654
  O      -52.442     -50.455      83.499
  H      -52.067     -48.569      82.798
  H      -52.030     -48.740      84.566
  H      -53.593     -48.749      83.695
  P      -53.180     -51.364      84.593
  C      -55.430     -51.315      83.283
  O      -54.382     -52.104      83.827
  C      -55.718     -51.756      81.847
  O      -54.552     -51.462      81.030
  C      -56.001     -53.258      81.719
  O      -57.000     -53.460      80.715
  C      -54.674     -53.823      81.245
  O      -54.790     -55.062      80.561
  C      -54.171     -52.680      80.357
  N      -52.725     -52.725      80.149
  C      -52.237     -53.669      79.251
  O      -52.938     -54.415      78.568
  N      -50.871     -53.741      79.154
  C      -49.972     -53.000      79.863
  O      -48.759     -53.126      79.748
  C      -50.548     -52.026      80.801
  C      -51.876     -51.936      80.900
  O      -53.937     -50.295      85.513
  O      -52.297     -52.274      85.379
  H      -53.366     -50.018      86.255
  H      -53.898     -55.324      80.254
  H      -50.500     -54.419      78.506
  H      -49.866     -51.425      81.389
  H      -52.333     -51.238      81.594
  H      -54.686     -52.695      79.389
  H      -54.003     -53.971      82.101
  H      -56.324     -53.711      82.657
  H      -56.549     -51.161      81.451
  H      -55.125     -50.264      83.284
  H      -56.326     -51.429      83.902
  P      -58.480     -53.836      81.212
  C      -59.937     -51.772      81.883
  O      -59.402     -52.573      80.844
  O      -58.311     -53.759      82.798
  O      -58.954     -55.151      80.685
  H      -57.717     -53.047      83.090
  H      -60.521     -50.982      81.459
  H      -59.138     -51.355      82.459
  H      -60.556     -52.374      82.515

 6  7  8  9  10  11  12  13  14  15  16  27  31  32  33  34  35 0
 6-311+G(2d,p)
 ****
 36  37 0
 6-311+G(2d,p)
 ****
 1  2  3  4  5  17  18  19  20  21  22  23  24  25 0
 3-21G
 ****
 26  28  29  30  38  39  40  41  42  43  44  45 0
 3-21G
 ****


