%nproc=1
%NoSave
%Mem=1900MB
#P OB98/GEN NMR

erre ene a

0 1
  C      183.694    -324.428     186.264
  O      183.552    -323.847     187.544
  H      183.826    -325.505     186.382
  H      184.583    -324.022     185.771
  H      182.812    -324.248     185.646
  P      183.059    -322.326     187.655
  C      185.158    -321.574     188.953
  O      183.747    -321.722     188.975
  C      185.818    -322.477     190.000
  O      185.997    -323.807     189.426
  C      187.200    -321.988     190.464
  O      187.365    -322.408     191.827
  C      188.126    -322.770     189.554
  O      189.446    -322.790     190.053
  C      187.404    -324.118     189.499
  N      187.843    -324.946     188.376
  C      188.676    -326.012     188.681
  O      189.073    -326.261     189.821
  N      189.089    -326.777     187.620
  C      188.803    -326.535     186.308
  O      189.226    -327.236     185.394
  C      187.951    -325.367     186.042
  C      187.511    -324.635     187.070
  O      181.585    -322.115     187.567
  O      183.842    -321.571     186.480
  H      190.066    -323.119     189.365
  H      183.309    -320.822     186.149
  H      189.687    -327.564     187.826
  H      187.713    -325.142     185.010
  H      186.887    -323.767     186.908
  H      187.573    -324.689     190.425
  H      188.161    -322.319     188.557
  H      187.326    -320.908     190.379
  H      185.134    -322.591     190.849
  H      185.393    -320.526     189.169
  H      185.537    -321.826     187.954
  P      188.092    -321.486     192.921
  C      189.495    -323.308     194.087
  O      188.422    -322.380     194.217
  O      187.366    -320.212     193.224
  O      189.534    -321.180     192.304
  H      189.864    -320.322     192.636
  H      189.619    -323.841     195.007
  H      190.397    -322.780     193.856
  H      189.275    -324.000     193.301

 6  7  8  9  10  11  12  13  14  15  16  26  31  32  33  34  35 0
 6-311+G(2d,p)
 ****
 36  37 0
 6-311+G(2d,p)
 ****
 1  2  3  4  5  17  18  19  20  21  22  23  24  25 0
 3-21G
 ****
 27  28  29  30  38  39  40  41  42  43  44  45 0
 3-21G
 ****


