%nproc=1
%NoSave
%Mem=1900MB
#P OB98/GEN NMR

erre ene a

0 1
  C     -305.322    -206.228     467.452
  O     -305.578    -206.028     466.062
  P     -305.159    -204.728     465.232
  C     -307.459    -204.095     464.147
  O     -306.146    -204.599     463.976
  C     -308.444    -204.545     463.049
  O     -307.728    -204.718     461.799
  C     -309.016    -205.926     463.407
  O     -310.129    -206.031     464.288
  C     -309.220    -206.613     462.066
  O     -310.563    -206.441     461.561
  C     -308.222    -205.910     461.153
  N     -306.340    -209.353     457.849
  C     -307.599    -208.777     457.890
  N     -308.492    -209.211     456.971
  N     -307.948    -207.883     458.784
  C     -306.990    -207.600     459.694
  C     -305.711    -208.123     459.772
  C     -305.314    -209.068     458.758
  O     -304.206    -209.599     458.658
  N     -305.028    -207.619     460.838
  C     -305.908    -206.820     461.438
  N     -307.116    -206.776     460.772
  O     -303.697    -204.579     464.972
  O     -305.613    -203.514     466.204
  H     -310.767    -205.495     461.587
  H     -304.972    -202.793     466.057
  H     -306.113    -210.026     457.143
  H     -305.709    -206.260     462.341
  H     -308.692    -205.573     460.210
  H     -309.068    -207.690     462.153
  H     -308.316    -209.977     456.349
  H     -308.220    -206.505     463.907
  H     -309.468    -208.954     457.135
  H     -309.215    -203.790     462.866
  H     -307.385    -202.987     464.151
  H     -307.849    -204.365     465.129
  P     -310.180    -206.850     465.657
  C     -312.283    -208.178     466.279
  O     -311.707    -206.898     466.141
  O     -309.490    -205.853     466.732
  O     -309.469    -208.168     465.644
  H     -309.243    -206.341     467.533
  H     -313.376    -208.065     466.308
  H     -311.943    -208.631     467.201
  H     -312.016    -208.816     465.430
  H     -305.707    -207.180     467.752
  H     -305.800    -205.456     468.017
  H     -304.267    -206.198     467.628

 3  4  5  6  7  8  9  10  11  12  23  26  30  31 0
 6-311+G(2d,p)
 ****
 33  35  36  37  38 0
 6-311+G(2d,p)
 ****
 1  2  13  14  15  16  17  18  19  20  21  22  24  25 0
 3-21G
 ****
 27  28  29  32  34  39  40  41  42  43  44  45  46  47  48  49 0
 3-21G
 ****


