%nproc=1
%NoSave
%Mem=1900MB
#P OB98/GEN NMR

erre ene a

0 1
  C      152.943    -587.591     391.811
  O      151.613    -587.484     392.272
  H      153.527    -588.152     392.546
  H      153.382    -586.598     391.692
  H      152.974    -588.124     390.856
  P      150.544    -586.844     391.266
  C      150.364    -584.776     392.876
  O      150.506    -585.260     391.541
  C      150.216    -583.256     392.863
  O      151.450    -582.610     392.492
  C      149.210    -582.744     391.841
  O      147.881    -583.029     392.203
  C      149.552    -581.261     391.846
  O      148.971    -580.596     392.980
  C      151.102    -581.305     391.965
  N      151.763    -581.033     390.698
  C      151.855    -579.676     390.340
  O      151.395    -578.802     391.078
  N      152.442    -579.356     389.142
  C      152.908    -580.289     388.374
  N      153.466    -579.905     387.196
  C      152.860    -581.714     388.727
  C      152.269    -582.022     389.894
  O      149.148    -587.345     391.865
  O      150.748    -587.178     389.818
  H      148.002    -580.778     392.932
  H      149.031    -587.132     392.808
  H      153.276    -582.473     388.063
  H      152.194    -583.051     390.224
  H      151.446    -580.565     392.701
  H      149.178    -580.755     390.957
  H      149.454    -583.146     390.848
  H      149.948    -582.935     393.885
  H      153.464    -578.914     386.978
  H      151.220    -585.075     393.494
  H      153.839    -580.551     386.507
  H      149.468    -585.247     393.308
  P      146.689    -582.812     391.146
  C      145.289    -581.176     392.549
  O      146.119    -581.330     391.401
  O      145.652    -583.889     391.129
  O      147.466    -582.632     389.751
  H      148.089    -581.885     389.724
  H      144.967    -580.158     392.623
  H      145.841    -581.440     393.427
  H      144.435    -581.814     392.460

 6  7  8  9  10  11  12  13  14  15  16  26  30  31  32  33  35 0
 6-311+G(2d,p)
 ****
 37  38 0
 6-311+G(2d,p)
 ****
 1  2  3  4  5  17  18  19  20  21  22  23  24  25 0
 3-21G
 ****
 27  28  29  34  36  39  40  41  42  43  44  45  46 0
 3-21G
 ****


