%nproc=1
%NoSave
%Mem=1900MB
#P OB98/GEN NMR

erre ene a

0 1
  C     -364.664     103.290      59.558
  O     -364.296     101.939      59.284
  P     -365.226     100.782      59.882
  C     -366.272     100.334      57.513
  O     -365.642      99.814      58.672
  C     -366.171      99.345      56.334
  O     -364.774      99.188      55.985
  C     -366.681      97.935      56.624
  O     -366.924      97.274      55.385
  C     -365.478      97.308      57.302
  O     -365.553      95.887      57.300
  C     -364.297      97.921      56.514
  N     -363.086      98.134      57.329
  C     -362.466      97.021      57.911
  O     -362.877      95.867      57.781
  N     -361.371      97.275      58.693
  C     -360.817      98.502      58.914
  O     -359.883      98.685      59.693
  C     -361.417      99.615      58.173
  C     -362.508      99.389      57.441
  O     -366.578     101.543      60.256
  O     -364.631     100.074      61.055
  H     -364.709      95.559      57.682
  H     -366.647     101.660      61.224
  H     -360.957      96.488      59.170
  H     -360.962     100.599      58.274
  H     -362.979     100.214      56.901
  H     -364.011      97.280      55.669
  H     -365.434      97.628      58.349
  H     -367.571      97.892      57.254
  H     -366.690      99.772      55.463
  H     -365.819     101.296      57.242
  H     -367.329     100.540      57.733
  P     -368.451      97.043      54.939
  C     -368.710      98.929      53.209
  O     -368.556      97.535      53.413
  O     -369.491      97.577      55.866
  O     -368.543      95.447      54.798
  H     -369.485      95.170      54.824
  H     -368.266      99.193      52.242
  H     -368.224      99.508      53.997
  H     -369.776      99.174      53.183
  H     -363.959     103.952      59.100
  H     -364.669     103.451      60.616
  H     -365.640     103.481      59.164

 3  4  5  6  7  8  9  10  11  12  13  23  28  29  30  31  32 0
 6-311+G(2d,p)
 ****
 33  34 0
 6-311+G(2d,p)
 ****
 1  2  14  15  16  17  18  19  20  21  22  24  25  26  27 0
 3-21G
 ****
 35  36  37  38  39  40  41  42  43  44  45 0
 3-21G
 ****


