%nproc=1
%NoSave
%Mem=1900MB
#P OB98/GEN NMR

erre ene a

0 1
  C     -224.276      35.906     -28.222
  O     -224.204      35.252     -29.470
  P     -225.523      35.060     -30.362
  C     -227.757      33.802     -30.108
  O     -226.452      34.017     -29.570
  C     -228.011      32.304     -30.275
  O     -228.396      31.695     -29.019
  C     -229.156      31.975     -31.225
  O     -228.987      32.299     -32.582
  C     -229.405      30.513     -30.881
  O     -228.477      29.658     -31.547
  C     -229.154      30.507     -29.353
  N     -230.407      30.425     -28.594
  C     -231.062      29.204     -28.637
  O     -230.647      28.227     -29.254
  N     -232.250      29.139     -27.950
  C     -232.845      30.172     -27.286
  O     -233.932      30.054     -26.733
  C     -232.113      31.444     -27.301
  C     -230.941      31.517     -27.942
  O     -225.277      34.705     -31.790
  O     -226.313      36.438     -30.158
  H     -228.643      28.748     -31.240
  H     -226.553      36.637     -29.238
  H     -232.743      28.263     -27.976
  H     -232.558      32.285     -26.774
  H     -230.381      32.449     -27.960
  H     -228.536      29.646     -29.078
  H     -230.412      30.195     -31.187
  H     -230.038      32.534     -30.893
  H     -227.076      31.831     -30.590
  H     -227.819      34.289     -31.089
  H     -228.498      34.263     -29.450
  P     -230.209      32.577     -33.582
  C     -231.726      31.174     -35.147
  O     -230.652      31.181     -34.233
  O     -230.074      33.746     -34.499
  O     -231.408      32.860     -32.559
  H     -232.033      33.481     -32.958
  H     -231.922      30.137     -35.453
  H     -231.480      31.752     -36.038
  H     -232.633      31.576     -34.682
  H     -223.302      35.937     -27.779
  H     -224.944      35.373     -27.578
  H     -224.636      36.904     -28.362

 3  4  5  6  7  8  9  10  11  12  13  23  28  29  30  31  32 0
 6-311+G(2d,p)
 ****
 33  34 0
 6-311+G(2d,p)
 ****
 1  2  14  15  16  17  18  19  20  21  22  24  25  26  27 0
 3-21G
 ****
 35  36  37  38  39  40  41  42  43  44  45 0
 3-21G
 ****


