%nproc=1
%NoSave
%Mem=1900MB
#P OB98/GEN NMR

erre ene a

0 1
  C     -276.009      61.336    -685.564
  O     -276.154      59.979    -685.212
  H     -274.979      61.509    -685.889
  H     -276.212      61.974    -684.701
  H     -276.678      61.603    -686.387
  P     -277.620      59.411    -684.895
  C     -277.339      60.113    -682.429
  O     -278.146      60.194    -683.598
  C     -278.140      59.510    -681.283
  O     -277.277      59.241    -680.156
  C     -279.249      60.413    -680.755
  O     -280.359      60.425    -681.631
  C     -279.511      59.773    -679.395
  O     -280.345      58.613    -679.526
  C     -278.078      59.382    -678.960
  N     -277.474      60.338    -678.029
  C     -277.720      60.126    -676.680
  O     -278.433      59.225    -676.258
  N     -277.128      61.020    -675.821
  C     -276.403      62.117    -676.178
  O     -275.935      62.914    -675.372
  C     -276.203      62.304    -677.623
  C     -276.735      61.424    -678.470
  O     -277.745      57.922    -684.828
  O     -278.521      60.026    -686.071
  H     -280.324      58.154    -678.668
  H     -278.669      59.348    -686.759
  H     -277.304      60.893    -674.834
  H     -275.633      63.169    -677.948
  H     -276.606      61.546    -679.535
  H     -278.085      58.394    -678.473
  H     -280.018      60.446    -678.702
  H     -278.864      61.429    -680.592
  H     -278.555      58.551    -681.624
  H     -277.019      61.125    -682.152
  H     -276.457      59.508    -682.650
  P     -281.101      61.796    -681.996
  C     -282.174      61.706    -679.674
  O     -281.493      62.517    -680.619
  O     -282.221      61.666    -682.977
  O     -279.931      62.720    -682.581
  H     -280.018      62.792    -683.551
  H     -282.387      62.282    -678.798
  H     -281.559      60.871    -679.412
  H     -283.090      61.354    -680.100

 6  7  8  9  10  11  12  13  14  15  16  26  31  32  33  34  35 0
 6-311+G(2d,p)
 ****
 36  37 0
 6-311+G(2d,p)
 ****
 1  2  3  4  5  17  18  19  20  21  22  23  24  25 0
 3-21G
 ****
 27  28  29  30  38  39  40  41  42  43  44  45 0
 3-21G
 ****


