%nproc=1
%NoSave
%Mem=1900MB
#P OB98/GEN NMR

erre ene a

0 1
  C      237.301    -119.039    -818.719
  O      237.951    -117.982    -818.041
  H      238.044    -119.794    -818.981
  H      236.841    -118.660    -819.638
  H      236.539    -119.493    -818.079
  P      237.008    -116.841    -817.408
  C      238.382    -116.393    -815.212
  O      237.222    -116.935    -815.821
  C      238.031    -115.688    -813.906
  O      237.163    -114.561    -814.203
  C      237.303    -116.584    -812.895
  O      237.721    -116.219    -811.579
  C      235.843    -116.203    -813.083
  O      235.059    -116.508    -811.930
  C      235.963    -114.711    -813.414
  N      234.791    -114.195    -814.121
  C      234.633    -112.802    -814.150
  O      235.457    -112.075    -813.589
  N      233.537    -112.269    -814.770
  C      232.632    -113.059    -815.266
  N      231.551    -112.471    -815.849
  C      232.731    -114.534    -815.225
  C      233.826    -115.028    -814.652
  O      235.548    -117.465    -817.630
  O      237.197    -115.483    -817.998
  H      235.228    -115.826    -811.248
  H      235.493    -118.406    -817.403
  H      231.946    -115.145    -815.640
  H      233.989    -116.095    -814.578
  H      236.095    -114.117    -812.498
  H      235.417    -116.746    -813.933
  H      237.492    -117.647    -813.069
  H      238.951    -115.278    -813.468
  H      231.509    -111.460    -815.838
  H      238.871    -115.685    -815.889
  H      230.762    -112.984    -816.215
  H      239.082    -117.217    -815.026
  P      237.652    -117.302    -810.400
  C      240.150    -116.769    -809.964
  O      239.139    -117.775    -810.028
  O      236.663    -118.402    -810.593
  O      237.250    -116.409    -809.130
  H      236.597    -116.917    -808.604
  H      241.086    -117.220    -809.708
  H      239.887    -116.046    -809.220
  H      240.235    -116.287    -810.916

 6  7  8  9  10  11  12  13  14  15  16  26  30  31  32  33  35 0
 6-311+G(2d,p)
 ****
 37  38 0
 6-311+G(2d,p)
 ****
 1  2  3  4  5  17  18  19  20  21  22  23  24  25 0
 3-21G
 ****
 27  28  29  34  36  39  40  41  42  43  44  45  46 0
 3-21G
 ****


