%nproc=1
%NoSave
%Mem=1900MB
#P OB98/GEN NMR

erre ene a

0 1
  C     -293.374    -662.991     263.421
  O     -294.773    -662.743     263.384
  P     -295.754    -664.021     263.378
  C     -296.426    -665.810     261.615
  O     -295.707    -664.615     261.893
  C     -297.323    -665.615     260.393
  O     -296.628    -664.898     259.354
  C     -297.777    -666.925     259.743
  O     -298.876    -667.506     260.419
  C     -298.199    -666.427     258.366
  O     -299.517    -665.851     258.436
  C     -297.143    -665.351     258.077
  N     -294.939    -665.022     253.527
  C     -295.926    -664.232     254.091
  N     -296.434    -663.256     253.309
  N     -296.368    -664.377     255.324
  C     -295.782    -665.414     255.974
  C     -294.785    -666.254     255.533
  C     -294.313    -666.084     254.173
  O     -293.482    -666.781     253.605
  N     -294.434    -667.171     256.496
  C     -295.195    -666.863     257.534
  N     -296.054    -665.835     257.250
  O     -297.212    -663.361     263.467
  O     -295.511    -665.006     264.474
  H     -299.731    -665.541     257.534
  H     -297.861    -664.033     263.737
  H     -294.638    -664.861     252.592
  H     -295.176    -667.383     258.481
  H     -297.582    -664.474     257.579
  H     -298.241    -667.235     257.626
  H     -296.178    -663.128     252.343
  H     -296.938    -667.626     259.643
  H     -297.200    -662.695     253.675
  H     -298.192    -665.022     260.700
  H     -297.034    -666.067     262.479
  H     -295.710    -666.619     261.437
  P     -299.095    -669.087     260.213
  C     -299.463    -670.546     258.103
  O     -299.503    -669.260     258.673
  O     -300.449    -669.376     261.020
  O     -297.958    -669.927     260.699
  H     -300.487    -670.296     261.315
  H     -300.015    -670.536     257.159
  H     -299.927    -671.285     258.764
  H     -298.427    -670.844     257.902
  H     -292.847    -662.060     263.421
  H     -293.090    -663.562     262.562
  H     -293.132    -663.538     264.308

 3  4  5  6  7  8  9  10  11  12  23  26  30  31 0
 6-311+G(2d,p)
 ****
 33  35  36  37  38 0
 6-311+G(2d,p)
 ****
 1  2  13  14  15  16  17  18  19  20  21  22  24  25 0
 3-21G
 ****
 27  28  29  32  34  39  40  41  42  43  44  45  46  47  48  49 0
 3-21G
 ****


