%nproc=1
%NoSave
%Mem=1900MB
#P OB98/GEN NMR

erre ene a

0 1
  C      -44.381    1092.724     -63.072
  O      -45.441    1091.967     -62.497
  P      -46.934    1092.199     -62.996
  C      -47.173    1090.167     -64.591
  O      -47.592    1090.783     -63.349
  C      -47.038    1088.657     -64.422
  O      -45.885    1088.292     -63.685
  C      -48.230    1088.026     -63.679
  O      -49.370    1087.992     -64.500
  C      -47.650    1086.674     -63.292
  O      -47.739    1085.733     -64.381
  C      -46.149    1087.025     -63.024
  N      -45.828    1087.093     -61.595
  C      -45.840    1085.877     -60.908
  O      -46.167    1084.829     -61.500
  N      -45.539    1085.864     -59.595
  C      -45.217    1086.979     -58.978
  N      -44.918    1086.925     -57.648
  C      -45.213    1088.292     -59.661
  C      -45.517    1088.287     -60.943
  O      -47.093    1093.244     -64.074
  O      -47.721    1092.618     -61.666
  H      -48.688    1085.595     -64.523
  H      -48.441    1093.215     -61.893
  H      -44.934    1089.190     -59.122
  H      -45.521    1089.182     -61.522
  H      -45.500    1086.285     -63.472
  H      -48.180    1086.256     -62.425
  H      -48.455    1088.629     -62.768
  H      -46.963    1088.213     -65.435
  H      -44.927    1085.992     -57.201
  H      -46.206    1090.592     -64.902
  H      -44.608    1087.720     -57.108
  H      -47.890    1090.429     -65.392
  P      -50.786    1088.344     -63.818
  C      -51.834    1089.686     -65.792
  O      -51.868    1088.500     -65.009
  O      -50.557    1089.860     -63.323
  O      -51.209    1087.454     -62.708
  H      -51.087    1089.993     -62.497
  H      -52.389    1089.496     -66.734
  H      -50.818    1089.976     -66.040
  H      -52.325    1090.507     -65.238
  H      -43.454    1092.439     -62.620
  H      -44.555    1093.766     -62.903
  H      -44.338    1092.535     -64.124

 3  4  5  6  7  8  9  10  11  12  13  23  27  28  29  30  32 0
 6-311+G(2d,p)
 ****
 34  35 0
 6-311+G(2d,p)
 ****
 1  2  14  15  16  17  18  19  20  21  22  24  25  26 0
 3-21G
 ****
 31  33  36  37  38  39  40  41  42  43  44  45  46 0
 3-21G
 ****


