%nproc=1
%NoSave
%Mem=1900MB
#P OB98/GEN NMR

erre ene a

0 1
  C      182.919     510.876    -322.545
  O      182.827     512.183    -323.076
  H      181.995     510.645    -322.014
  H      183.757     510.818    -321.843
  H      183.055     510.146    -323.351
  P      184.013     512.651    -324.051
  C      182.893     511.598    -326.184
  O      183.991     511.629    -325.286
  C      183.360     511.289    -327.608
  O      183.630     509.867    -327.709
  C      182.335     511.647    -328.684
  O      183.040     512.111    -329.840
  C      181.676     510.318    -328.998
  O      181.082     510.301    -330.296
  C      182.850     509.348    -328.804
  N      182.409     507.975    -328.552
  C      182.655     507.038    -329.555
  O      183.212     507.380    -330.603
  N      182.235     505.747    -329.375
  C      181.566     505.428    -328.314
  N      181.155     504.135    -328.204
  C      181.241     506.395    -327.241
  C      181.700     507.633    -327.423
  O      185.309     512.222    -323.221
  O      183.971     514.100    -324.428
  H      180.648     509.432    -330.425
  H      185.243     511.333    -322.834
  H      180.673     506.086    -326.379
  H      181.516     508.408    -326.685
  H      183.497     509.339    -329.696
  H      180.889     510.107    -328.267
  H      181.621     512.410    -328.357
  H      184.312     511.807    -327.780
  H      181.376     503.512    -328.969
  H      182.367     512.560    -326.173
  H      180.583     503.786    -327.449
  H      182.197     510.825    -325.837
  P      182.498     513.397    -330.637
  C      184.048     515.105    -329.454
  O      182.708     514.701    -329.728
  O      181.150     513.253    -331.257
  O      183.614     513.596    -331.777
  H      183.153     513.835    -332.605
  H      184.038     515.982    -328.842
  H      184.551     515.318    -330.374
  H      184.560     514.318    -328.941

 6  7  8  9  10  11  12  13  14  15  16  26  30  31  32  33  35 0
 6-311+G(2d,p)
 ****
 37  38 0
 6-311+G(2d,p)
 ****
 1  2  3  4  5  17  18  19  20  21  22  23  24  25 0
 3-21G
 ****
 27  28  29  34  36  39  40  41  42  43  44  45  46 0
 3-21G
 ****


