%nproc=1
%NoSave
%Mem=1900MB
#P OB98/GEN NMR

erre ene a

0 1
  C      202.452     226.655     682.233
  O      201.964     227.502     681.208
  P      200.645     227.009     680.411
  C      202.033     225.189     679.158
  O      201.166     226.294     679.074
  C      201.628     224.124     678.154
  O      200.332     223.562     678.521
  C      201.453     224.642     676.705
  O      202.711     224.712     676.071
  C      200.521     223.596     676.121
  O      201.247     222.415     675.722
  C      199.585     223.300     677.297
  N      194.971     223.773     675.270
  C      196.012     222.950     674.904
  N      195.786     222.083     673.878
  N      197.184     222.957     675.494
  C      197.290     223.865     676.482
  C      196.306     224.766     676.925
  C      195.018     224.698     676.303
  O      194.029     225.338     676.653
  N      196.778     225.545     677.951
  C      198.020     225.119     678.148
  N      198.369     224.083     677.301
  O      199.988     228.378     679.906
  O      199.697     226.183     681.234
  H      201.855     222.633     674.989
  H      199.262     228.656     680.504
  H      194.096     223.705     674.790
  H      198.688     225.510     678.898
  H      199.283     222.251     677.331
  H      200.006     223.963     675.216
  H      194.928     222.053     673.366
  H      200.974     225.624     676.704
  H      196.538     221.477     673.605
  H      202.363     223.306     678.162
  H      202.007     224.776     680.161
  H      203.086     225.517     678.955
  P      203.166     226.128     675.445
  C      202.565     225.348     673.047
  O      203.557     225.859     673.914
  O      204.558     226.412     676.157
  O      202.189     227.235     675.678
  H      204.666     227.382     676.326
  H      202.779     225.712     672.020
  H      201.551     225.674     673.319
  H      202.611     224.253     673.039
  H      203.321     227.095     682.676
  H      202.707     225.703     681.817
  H      201.697     226.527     682.980

 3  4  5  6  7  8  9  10  11  12  23  26  30  31 0
 6-311+G(2d,p)
 ****
 33  35  36  37  38 0
 6-311+G(2d,p)
 ****
 1  2  13  14  15  16  17  18  19  20  21  22  24  25 0
 3-21G
 ****
 27  28  29  32  34  39  40  41  42  43  44  45  46  47  48  49 0
 3-21G
 ****


