%nproc=1
%NoSave
%Mem=1900MB
#P OB98/GEN NMR

erre ene a

0 1
  C     -112.716      92.278      64.100
  O     -111.740      91.488      64.757
  P     -110.912      92.192      65.943
  C     -109.275      94.225      66.043
  O     -109.959      93.273      65.244
  C     -107.854      94.418      65.511
  O     -107.164      93.154      65.450
  C     -107.787      95.005      64.107
  O     -107.936      96.414      64.150
  C     -106.407      94.545      63.651
  O     -105.379      95.407      64.175
  C     -106.318      93.141      64.268
  N     -104.838      90.119      60.496
  C     -104.209      91.216      61.055
  N     -102.987      91.521      60.565
  N     -104.727      91.944      62.009
  C     -105.959      91.528      62.390
  C     -106.690      90.470      61.904
  C     -106.083      89.643      60.887
  O     -106.555      88.606      60.428
  N     -107.909      90.374      62.523
  C     -107.899      91.354      63.403
  N     -106.731      92.072      63.378
  O     -109.913      91.039      66.418
  O     -111.742      92.735      67.063
  H     -105.441      96.279      63.744
  H     -110.256      90.592      67.216
  H     -104.382      89.586      59.777
  H     -108.700      91.571      64.094
  H     -105.302      92.903      64.603
  H     -106.306      94.564      62.561
  H     -102.537      91.022      59.816
  H     -108.556      94.556      63.467
  H     -102.513      92.325      60.961
  H     -107.314      95.058      66.220
  H     -109.227      93.861      67.073
  H     -109.827      95.171      66.027
  P     -109.020      97.075      63.171
  C     -109.264      97.379      60.605
  O     -108.453      96.945      61.681
  O     -108.902      98.638      63.494
  O     -110.415      96.583      63.370
  H     -109.784      99.052      63.435
  H     -108.617      97.720      59.794
  H     -109.926      98.197      60.900
  H     -109.866      96.540      60.249
  H     -113.191      91.697      63.338
  H     -112.245      93.131      63.657
  H     -113.448      92.603      64.809

 3  4  5  6  7  8  9  10  11  12  23  26  30  31 0
 6-311+G(2d,p)
 ****
 33  35  36  37  38 0
 6-311+G(2d,p)
 ****
 1  2  13  14  15  16  17  18  19  20  21  22  24  25 0
 3-21G
 ****
 27  28  29  32  34  39  40  41  42  43  44  45  46  47  48  49 0
 3-21G
 ****


