%nproc=1
%NoSave
%Mem=1900MB
#P OB98/GEN NMR

erre ene a

0 1
  C       66.873     450.144    -262.789
  O       65.562     450.072    -262.272
  H       66.854     450.111    -263.881
  H       67.325     451.091    -262.475
  H       67.481     449.319    -262.401
  P       64.708     448.765    -262.650
  C       62.587     450.272    -262.582
  O       63.217     449.076    -262.141
  C       61.097     450.012    -262.787
  O       60.902     449.061    -263.857
  C       60.408     449.409    -261.567
  O       60.049     450.387    -260.602
  C       59.179     448.793    -262.213
  O       58.218     449.821    -262.506
  C       59.763     448.217    -263.512
  N       58.404     443.461    -262.190
  C       57.707     444.619    -262.256
  N       58.133     445.836    -262.639
  C       59.430     445.800    -262.985
  C       60.267     444.691    -262.979
  C       59.708     443.476    -262.548
  N       60.428     442.304    -262.449
  N       61.541     445.049    -263.383
  C       61.460     446.338    -263.646
  N       60.213     446.842    -263.390
  O       65.221     447.660    -261.613
  O       64.796     448.316    -264.071
  H       57.456     449.388    -262.938
  H       64.935     446.771    -261.890
  H       56.660     444.549    -261.958
  H       62.274     446.952    -264.015
  H       59.055     448.257    -264.350
  H       58.679     448.064    -261.565
  H       61.012     448.610    -261.116
  H       60.618     450.950    -263.085
  H       63.035     450.584    -263.530
  H       59.975     441.526    -261.993
  H       61.426     442.338    -262.572
  H       62.730     451.058    -261.837
  P       59.740     449.877    -259.108
  C       57.219     450.486    -259.014
  O       58.535     450.781    -258.562
  O       61.009     450.413    -258.287
  O       59.562     448.401    -258.981
  H       61.223     449.809    -257.551
  H       56.527     451.169    -258.567
  H       56.963     449.485    -258.736
  H       57.178     450.583    -260.079

 6  7  8  9  10  11  12  13  14  15  25  28  32  33  34  35 0
 6-311+G(2d,p)
 ****
 36  39  40 0
 6-311+G(2d,p)
 ****
 1  2  3  4  5  16  17  18  19  20  21  22  23  24 0
 3-21G
 ****
 26  27  29  30  31  37  38  41  42  43  44  45  46  47 0
 3-21G
 ****
 48 0
 3-21G
 ****


