%nproc=1
%NoSave
%Mem=1900MB
#P OB98/GEN NMR

erre ene a

0 1
  C      262.993    -315.485    -352.085
  O      262.109    -314.424    -352.430
  H      263.584    -315.746    -352.959
  H      262.412    -316.364    -351.775
  H      263.664    -315.175    -351.280
  P      261.205    -313.829    -351.242
  C      262.549    -311.618    -351.023
  O      262.150    -312.834    -350.406
  C      263.663    -310.935    -350.221
  O      264.835    -311.815    -350.209
  C      264.112    -309.575    -350.788
  O      264.459    -308.730    -349.694
  C      265.391    -309.936    -351.546
  O      266.238    -308.798    -351.734
  C      265.959    -311.012    -350.617
  N      270.856    -312.188    -350.511
  C      270.105    -311.390    -349.667
  N      270.760    -310.807    -348.632
  N      268.824    -311.164    -349.825
  C      268.294    -311.836    -350.878
  C      268.923    -312.654    -351.785
  C      270.349    -312.860    -351.622
  O      271.063    -313.549    -352.341
  N      268.037    -313.112    -352.732
  C      266.885    -312.582    -352.387
  N      266.984    -311.802    -351.257
  O      261.021    -315.088    -350.268
  O      259.893    -313.256    -351.673
  H      266.480    -308.461    -350.852
  H      260.185    -315.564    -350.479
  H      271.839    -312.294    -350.344
  H      265.934    -312.744    -352.916
  H      266.421    -310.592    -349.717
  H      265.151    -310.353    -352.538
  H      271.728    -310.965    -348.435
  H      263.364    -309.079    -351.423
  H      270.213    -310.246    -347.990
  H      263.324    -310.847    -349.187
  H      261.681    -310.946    -351.066
  H      262.890    -311.829    -352.044
  P      263.268    -308.005    -348.890
  C      263.580    -309.570    -346.835
  O      262.694    -309.028    -347.805
  O      262.096    -307.937    -349.982
  O      263.617    -306.635    -348.366
  H      261.521    -307.178    -349.806
  H      263.041    -310.231    -346.189
  H      264.005    -308.776    -346.257
  H      264.361    -310.111    -347.328

 6  7  8  9  10  11  12  13  14  15  26  29  33  34 0
 6-311+G(2d,p)
 ****
 36  38  39  40  41 0
 6-311+G(2d,p)
 ****
 1  2  3  4  5  16  17  18  19  20  21  22  23  24  25 0
 3-21G
 ****
 27  28  30  31  32  35  37  42  43  44  45  46  47 0
 3-21G
 ****
 48  49 0
 3-21G
 ****


