%nproc=1
%NoSave
%Mem=1900MB
#P OB98/GEN NMR

erre ene a

0 1
  C     -125.893    -163.081     150.842
  O     -127.013    -162.306     151.294
  P     -127.837    -162.638     152.631
  C     -128.687    -160.194     152.749
  O     -129.036    -161.576     152.755
  C     -129.911    -159.327     152.441
  O     -130.341    -159.528     151.073
  C     -131.151    -159.638     153.269
  O     -131.039    -159.183     154.604
  C     -132.236    -158.936     152.453
  O     -132.322    -157.544     152.787
  C     -131.721    -159.101     151.011
  N     -132.519    -160.026     150.224
  C     -133.464    -159.463     149.360
  O     -133.645    -158.247     149.346
  N     -134.185    -160.298     148.544
  C     -134.056    -161.585     148.659
  N     -134.785    -162.361     147.813
  C     -133.172    -162.221     149.656
  C     -132.438    -161.391     150.393
  O     -126.989    -162.730     153.857
  O     -128.580    -164.024     152.338
  H     -128.746    -164.491     153.179
  H     -132.873    -157.121     152.099
  H     -133.125    -163.295     149.745
  H     -131.750    -161.774     151.139
  H     -131.697    -158.127     150.505
  H     -133.227    -159.370     152.625
  H     -131.331    -160.722     153.256
  H     -129.623    -158.274     152.568
  H     -135.373    -161.893     147.136
  H     -127.935    -160.031     151.971
  H     -134.740    -163.370     147.803
  H     -128.251    -159.929     153.717
  P     -131.559    -160.172     155.757
  C     -129.323    -160.096     157.073
  O     -130.718    -159.860     157.082
  O     -131.023    -161.608     155.290
  O     -133.042    -160.182     155.941
  H     -131.695    -162.287     155.484
  H     -128.849    -159.423     157.789
  H     -128.892    -159.924     156.082
  H     -129.133    -161.131     157.378
  H     -125.514    -162.664     149.933
  H     -126.204    -164.090     150.669
  H     -125.126    -163.067     151.588

 3  4  5  6  7  8  9  10  11  12  13  24  27  28  29  30  32 0
 6-311+G(2d,p)
 ****
 34  35 0
 6-311+G(2d,p)
 ****
 1  2  14  15  16  17  18  19  20  21  22  23  25  26 0
 3-21G
 ****
 31  33  36  37  38  39  40  41  42  43  44  45  46 0
 3-21G
 ****


