%nproc=1
%NoSave
%Mem=1900MB
#P OB98/GEN NMR

erre ene a

0 1
  C      101.990     148.852     118.469
  O      103.070     149.188     117.589
  P      103.464     148.136     116.447
  C      101.617     148.801     114.742
  O      102.145     147.802     115.600
  C      100.947     148.156     113.525
  O       99.841     147.311     113.911
  C      100.376     149.164     112.536
  O      101.374     149.658     111.654
  C       99.391     148.296     111.770
  O      100.095     147.516     110.780
  C       98.834     147.386     112.871
  N       93.795     147.305     112.439
  C       94.763     146.667     111.689
  N       94.323     145.885     110.680
  N       96.047     146.784     111.909
  C       96.339     147.583     112.961
  C       95.471     148.271     113.778
  C       94.055     148.146     113.515
  O       93.153     148.698     114.137
  N       96.144     148.983     114.734
  C       97.416     148.713     114.512
  N       97.588     147.880     113.434
  O      103.704     146.786     117.275
  O      104.669     148.516     115.651
  H       99.427     146.965     110.332
  H      104.340     146.217     116.805
  H       92.821     147.184     112.223
  H       98.242     149.093     115.098
  H       98.646     146.366     112.518
  H       98.645     148.887     111.232
  H       93.350     145.711     110.487
  H       99.844     149.971     113.055
  H       95.016     145.382     110.139
  H      101.695     147.535     113.013
  H      102.410     149.478     114.412
  H      100.914     149.420     115.306
  P      101.846     151.180     111.837
  C      103.419     150.860     113.877
  O      102.187     151.354     113.391
  O      100.484     152.000     111.643
  O      102.899     151.625     110.882
  H      100.673     152.872     111.249
  H      103.552     151.206     114.905
  H      104.251     151.228     113.272
  H      103.412     149.767     113.872
  H      101.844     149.644     119.173
  H      102.224     147.948     118.992
  H      101.095     148.713     117.899

 3  4  5  6  7  8  9  10  11  12  23  26  30  31 0
 6-311+G(2d,p)
 ****
 33  35  36  37  38 0
 6-311+G(2d,p)
 ****
 1  2  13  14  15  16  17  18  19  20  21  22  24  25 0
 3-21G
 ****
 27  28  29  32  34  39  40  41  42  43  44  45  46  47  48  49 0
 3-21G
 ****


