%nproc=1
%NoSave
%Mem=1900MB
#P OB98/GEN NMR

erre ene a

0 1
  C      208.710      14.595    -212.206
  O      208.378      14.895    -210.867
  H      208.980      15.508    -212.741
  H      209.567      13.916    -212.213
  H      207.869      14.106    -212.704
  P      207.161      15.915    -210.634
  C      205.382      14.288    -211.586
  O      205.832      15.027    -210.459
  C      204.451      13.166    -211.133
  O      203.592      12.808    -212.244
  C      205.169      11.891    -210.656
  O      204.787      11.581    -209.312
  C      204.642      10.794    -211.570
  O      204.386       9.569    -210.887
  C      203.365      11.397    -212.144
  N      199.890       8.744    -214.761
  C      199.788       9.482    -213.634
  N      200.727      10.251    -213.047
  C      201.866      10.237    -213.759
  C      202.113       9.553    -214.938
  C      201.065       8.760    -215.434
  N      201.187       7.965    -216.552
  N      203.408       9.775    -215.370
  C      203.945      10.544    -214.445
  N      203.057      10.833    -213.443
  O      206.972      16.594    -212.072
  O      207.385      16.934    -209.568
  H      205.228       9.298    -210.473
  H      206.911      17.562    -211.972
  H      198.826       9.443    -213.132
  H      204.974      10.880    -214.427
  H      202.502      11.237    -211.487
  H      205.381      10.604    -212.357
  H      206.259      11.969    -210.724
  H      203.804      13.556    -210.338
  H      206.241      13.848    -212.103
  H      200.426       7.342    -216.769
  H      202.091       7.889    -216.993
  H      204.868      14.965    -212.275
  P      205.896      11.833    -208.172
  C      206.077      14.412    -207.872
  O      205.505      13.194    -207.417
  O      207.193      12.242    -209.018
  O      206.146      10.651    -207.299
  H      208.001      12.014    -208.521
  H      205.719      15.221    -207.270
  H      205.800      14.577    -208.892
  H      207.143      14.355    -207.797

 6  7  8  9  10  11  12  13  14  15  25  28  32  33  34  35 0
 6-311+G(2d,p)
 ****
 36  39  40 0
 6-311+G(2d,p)
 ****
 1  2  3  4  5  16  17  18  19  20  21  22  23  24 0
 3-21G
 ****
 26  27  29  30  31  37  38  41  42  43  44  45  46  47  48 0
 3-21G
 ****


