%nproc=1
%NoSave
%Mem=1900MB
#P OB98/GEN NMR

erre ene a

0 1
  C     -460.185     451.655     161.144
  O     -460.923     450.706     161.921
  P     -462.309     450.142     161.337
  C     -463.759     451.779     162.703
  O     -463.410     451.301     161.406
  C     -464.546     453.106     162.605
  O     -465.805     452.908     161.888
  C     -464.888     453.674     163.985
  O     -464.892     455.121     163.940
  C     -466.320     453.224     164.187
  O     -466.998     454.027     165.165
  C     -466.865     453.343     162.760
  N     -471.792     452.719     164.034
  C     -470.884     453.663     164.375
  N     -469.603     453.787     163.969
  C     -469.279     452.785     163.134
  C     -470.089     451.743     162.701
  C     -471.406     451.735     163.193
  N     -472.310     450.739     162.875
  N     -469.397     450.915     161.840
  C     -468.190     451.397     161.801
  N     -468.054     452.549     162.545
  O     -462.751     448.823     161.877
  O     -462.013     450.041     159.761
  H     -467.073     454.934     164.786
  H     -462.397     449.202     159.416
  H     -471.252     454.433     165.048
  H     -467.342     450.959     161.269
  H     -467.100     454.381     162.501
  H     -466.325     452.177     164.541
  H     -464.224     453.352     164.799
  H     -463.954     453.816     162.019
  H     -462.862     451.917     163.299
  H     -473.194     450.746     163.364
  H     -472.000     449.936     162.352
  H     -464.344     451.012     163.215
  P     -463.584     455.829     164.558
  C     -463.685     455.105     167.076
  O     -463.119     454.922     165.789
  O     -463.789     457.281     164.865
  O     -462.487     455.570     163.420
  H     -462.424     454.636     163.134
  H     -463.330     454.287     167.724
  H     -464.774     455.056     167.017
  H     -463.373     456.063     167.486
  H     -459.294     451.929     161.668
  H     -460.785     452.526     160.981
  H     -459.925     451.219     160.202

 3  4  5  6  7  8  9  10  11  12  22  25  29  30  31  32 0
 6-311+G(2d,p)
 ****
 33  36  37 0
 6-311+G(2d,p)
 ****
 1  2  13  14  15  16  17  18  19  20  21  23  24  26 0
 3-21G
 ****
 27  28  34  35  38  39  40  41  42  43  44  45  46  47  48 0
 3-21G
 ****


