%nproc=1
%NoSave
%Mem=1900MB
#P OB98/GEN NMR

erre ene a

0 1
  C     -423.183    -543.989      84.297
  O     -422.352    -543.144      85.074
  H     -423.874    -544.505      84.967
  H     -422.576    -544.727      83.772
  H     -423.757    -543.399      83.581
  P     -421.267    -542.279      84.263
  C     -419.571    -544.246      84.486
  O     -420.238    -543.335      83.628
  C     -418.740    -545.245      83.668
  O     -417.588    -544.537      83.105
  C     -418.180    -546.419      84.493
  O     -418.049    -547.548      83.614
  C     -416.803    -545.897      84.875
  O     -415.987    -546.945      85.365
  C     -416.411    -545.243      83.560
  N     -411.593    -544.285      82.100
  C     -412.468    -545.258      81.757
  N     -413.740    -545.443      82.170
  C     -414.096    -544.472      83.031
  C     -413.322    -543.407      83.475
  C     -412.003    -543.337      82.978
  N     -411.120    -542.352      83.341
  N     -414.044    -542.626      84.364
  C     -415.216    -543.202      84.455
  N     -415.300    -544.320      83.669
  O     -420.421    -541.570      85.424
  O     -421.829    -541.282      83.302
  H     -415.143    -546.587      85.710
  H     -420.771    -540.674      85.592
  H     -412.089    -545.996      81.036
  H     -416.045    -542.857      85.058
  H     -416.149    -545.980      82.790
  H     -416.879    -545.157      85.673
  H     -418.816    -546.691      85.340
  H     -419.336    -545.593      82.819
  H     -420.327    -544.788      85.072
  H     -418.907    -543.695      85.167
  H     -410.190    -542.382      82.951
  H     -411.408    -541.646      84.008
  P     -419.108    -548.752      83.709
  C     -417.735    -550.586      84.967
  O     -418.784    -549.625      85.015
  O     -418.625    -549.722      82.529
  O     -420.545    -548.373      83.526
  H     -419.382    -550.227      82.199
  H     -417.655    -551.075      85.916
  H     -416.812    -550.095      84.740
  H     -417.950    -551.311      84.210

 6  7  8  9  10  11  12  13  14  15  25  28  32  33  34  35 0
 6-311+G(2d,p)
 ****
 36  37  40 0
 6-311+G(2d,p)
 ****
 1  2  3  4  5  16  17  18  19  20  21  22  23  24 0
 3-21G
 ****
 26  27  29  30  31  38  39 41  42  43  44  45  46  47  48 0
 3-21G
 ****


