%nproc=1
%NoSave
%Mem=1900MB
#P OB98/GEN NMR

erre ene a

0 1
  C      734.661    -673.274    -471.303
  O      735.136    -672.335    -470.339
  P      736.626    -671.750    -470.517
  C      737.980    -670.854    -472.520
  O      736.694    -670.971    -471.918
  C      737.967    -669.823    -473.657
  O      737.016    -670.254    -474.678
  C      737.509    -668.413    -473.236
  O      738.496    -667.494    -472.802
  C      736.984    -667.852    -474.580
  O      738.082    -667.356    -475.357
  C      736.399    -669.086    -475.271
  N      732.142    -671.240    -477.163
  C      733.433    -671.352    -477.504
  N      734.509    -670.742    -476.952
  C      734.140    -669.950    -475.932
  C      732.851    -669.746    -475.458
  C      731.816    -670.415    -476.127
  N      730.490    -670.315    -475.774
  N      732.863    -668.867    -474.399
  C      734.136    -668.538    -474.245
  N      734.947    -669.184    -475.134
  O      737.740    -672.700    -470.261
  O      736.637    -670.548    -469.467
  H      738.780    -668.036    -475.301
  H      737.520    -670.500    -469.051
  H      733.653    -672.020    -478.346
  H      734.502    -667.842    -473.501
  H      736.618    -669.111    -476.336
  H      736.283    -667.031    -474.441
  H      736.680    -668.464    -472.526
  H      738.961    -669.771    -474.121
  H      738.286    -671.821    -472.920
  H      729.813    -670.796    -476.340
  H      730.226    -669.647    -475.050
  H      738.689    -670.598    -471.737
  P      738.897    -667.407    -471.234
  C      740.135    -669.081    -469.638
  O      739.457    -668.859    -470.860
  O      737.826    -666.890    -470.321
  O      740.219    -666.508    -471.263
  H      740.986    -666.944    -471.680
  H      740.232    -670.156    -469.476
  H      739.566    -668.647    -468.794
  H      741.135    -668.622    -469.669
  H      733.663    -673.569    -471.052
  H      735.297    -674.134    -471.306
  H      734.666    -672.823    -472.273

 3  4  5  6  7  8  9  10  11  12  22  25  29  30  31  32 0
 6-311+G(2d,p)
 ****
 33  36  37 0
 6-311+G(2d,p)
 ****
 1  2  13  14  15  16  17  18  19  20  21  23  24  26 0
 3-21G
 ****
 27  28  34  35  38  39  40  41  42  43  44  45  46  47  48 0
 3-21G
 ****


