%nproc=1
%NoSave
%Mem=1900MB
#P OB98/GEN NMR

erre ene a

0 1
  C     -474.126    -134.216    -298.801
  O     -474.980    -133.814    -297.750
  H     -474.212    -133.496    -299.619
  H     -474.427    -135.200    -299.170
  H     -473.086    -134.244    -298.463
  P     -474.846    -134.593    -296.353
  C     -473.921    -132.475    -295.160
  O     -473.709    -133.833    -295.514
  C     -472.661    -131.896    -294.521
  O     -471.581    -131.946    -295.495
  C     -472.808    -130.432    -294.071
  O     -472.051    -130.257    -292.865
  C     -472.133    -129.661    -295.194
  O     -471.673    -128.376    -294.812
  C     -471.008    -130.624    -295.574
  N     -470.470    -130.361    -296.904
  C     -469.108    -130.087    -297.004
  O     -468.313    -130.132    -296.067
  N     -468.661    -129.742    -298.258
  C     -469.432    -129.630    -299.381
  O     -468.977    -129.298    -300.472
  C     -470.857    -129.925    -299.212
  C     -471.304    -130.270    -298.002
  O     -474.143    -135.967    -296.776
  O     -476.125    -134.809    -295.613
  H     -474.813    -136.639    -297.002
  H     -471.080    -128.052    -295.520
  H     -467.680    -129.535    -298.345
  H     -471.498    -129.837    -300.081
  H     -472.359    -130.474    -297.843
  H     -470.197    -130.574    -294.834
  H     -472.839    -129.534    -296.028
  H     -473.839    -130.114    -293.909
  H     -472.367    -132.535    -293.682
  H     -474.749    -132.413    -294.447
  H     -474.190    -131.907    -296.062
  P     -472.871    -129.933    -291.524
  C     -472.361    -132.320    -290.574
  O     -473.336    -131.358    -290.946
  O     -474.208    -129.293    -292.126
  O     -472.118    -129.057    -290.575
  H     -474.478    -129.697    -292.963
  H     -472.849    -133.201    -290.214
  H     -471.738    -131.917    -289.803
  H     -471.761    -132.567    -291.425

 6  7  8  9  10  11  12  13  14  15  16  27  31  32  33  34  35 0
 6-311+G(2d,p)
 ****
 36  37 0
 6-311+G(2d,p)
 ****
 1  2  3  4  5  17  18  19  20  21  22  23  24  25 0
 3-21G
 ****
 26  28  29  30  38  39  40  41  42  43  44  45 0
 3-21G
 ****


