%nproc=1
%NoSave
%Mem=1900MB
#P OB98/GEN NMR

erre ene a

0 1
  C      219.790    -118.437     390.976
  O      219.751    -119.790     391.386
  P      218.710    -120.763     390.621
  C      217.503    -121.190     392.887
  O      217.372    -120.819     391.516
  C      216.694    -122.452     393.186
  O      217.038    -122.920     394.517
  C      215.162    -122.268     393.145
  O      214.615    -123.491     392.637
  C      214.827    -122.081     394.612
  O      213.458    -122.268     394.931
  C      215.797    -123.081     395.239
  N      214.098    -124.157     399.957
  C      213.720    -124.611     398.733
  N      214.224    -124.284     397.526
  C      215.234    -123.396     397.658
  C      215.714    -122.845     398.823
  C      215.097    -123.259     400.018
  N      215.484    -122.789     401.268
  N      216.742    -121.952     398.563
  C      216.874    -121.975     397.252
  N      215.995    -122.855     396.666
  O      219.359    -122.209     390.832
  O      218.495    -120.440     389.171
  H      212.909    -121.611     394.456
  H      219.251    -122.762     390.026
  H      212.904    -125.331     398.721
  H      217.570    -121.369     396.692
  H      215.461    -124.111     395.117
  H      215.088    -121.062     394.910
  H      214.843    -121.443     392.504
  H      216.995    -123.232     392.476
  H      217.104    -120.374     393.506
  H      214.851    -122.989     402.030
  H      216.082    -121.976     401.281
  H      218.554    -121.322     393.131
  P      213.565    -123.430     391.424
  C      211.659    -124.195     392.977
  O      212.151    -123.171     392.149
  O      213.443    -124.980     391.036
  O      213.928    -122.534     390.288
  H      213.266    -125.534     391.822
  H      210.758    -123.858     393.481
  H      212.408    -124.464     393.740
  H      211.420    -125.089     392.376
  H      220.515    -117.908     391.559
  H      218.827    -117.993     391.118
  H      220.058    -118.385     389.941

 3  4  5  6  7  8  9  10  11  12  22  25  29  30  31  32 0
 6-311+G(2d,p)
 ****
 33  36  37 0
 6-311+G(2d,p)
 ****
 1  2  13  14  15  16  17  18  19  20  21  23  24  26 0
 3-21G
 ****
 27  28  34  35  38  39  40  41  42  43  44  45  46  47  48 0
 3-21G
 ****


