%nproc=1
%NoSave
%Mem=1900MB
#P OB98/GEN NMR

erre ene a

0 1
  C     -343.570     187.864    -899.123
  O     -344.405     187.878    -897.973
  P     -345.553     186.765    -897.853
  C     -345.067     186.199    -895.303
  O     -345.220     185.760    -896.643
  C     -343.570     186.362    -894.993
  O     -342.991     187.369    -895.853
  C     -343.301     186.780    -893.563
  O     -343.213     185.658    -892.683
  C     -341.998     187.539    -893.693
  O     -340.892     186.619    -893.803
  C     -342.214     188.288    -895.033
  N     -342.906     189.592    -894.993
  C     -342.257     190.717    -894.493
  O     -341.096     190.716    -894.093
  N     -342.960     191.894    -894.523
  C     -344.169     192.095    -895.113
  O     -344.738     193.170    -895.153
  C     -344.765     190.901    -895.743
  C     -344.128     189.740    -895.643
  O     -345.346     185.860    -899.163
  O     -346.940     187.315    -897.773
  H     -340.912     186.048    -893.013
  H     -346.117     185.932    -899.753
  H     -342.525     192.704    -894.113
  H     -345.704     191.025    -896.263
  H     -344.557     188.849    -896.113
  H     -341.252     188.452    -895.543
  H     -341.780     188.148    -892.813
  H     -344.064     187.497    -893.213
  H     -343.067     185.402    -895.203
  H     -345.517     185.481    -894.613
  H     -345.595     187.148    -895.173
  P     -344.536     185.148    -891.943
  C     -344.368     182.687    -892.663
  O     -345.073     183.914    -892.823
  O     -345.564     186.192    -891.613
  O     -343.967     184.418    -890.633
  H     -343.993     185.030    -889.853
  H     -344.925     181.885    -893.183
  H     -344.278     182.426    -891.603
  H     -343.367     182.775    -893.103
  H     -342.859     188.661    -899.057
  H     -344.169     187.991    -900.000
  H     -343.053     186.929    -899.177

 3  4  5  6  7  8  9  10  11  12  13  23  28  29  30  31  32 0
 6-311+G(2d,p)
 ****
 33  34 0
 6-311+G(2d,p)
 ****
 1  2  14  15  16  17  18  19  20  21  22  24  25  26  27 0
 3-21G
 ****
 35  36  37  38  39  40  41  42  43  44  45 0
 3-21G
 ****


