%nproc=1
%NoSave
%Mem=1900MB
#P OB98/GEN NMR

erre ene a

0 1
  C      366.529    -310.292     152.964
  O      365.859    -311.141     153.873
  H      367.594    -310.283     153.209
  H      366.141    -309.273     153.062
  H      366.412    -310.637     151.936
  P      364.344    -311.567     153.565
  C      364.814    -314.107     153.503
  O      364.154    -313.042     154.175
  C      364.428    -315.458     154.113
  O      365.248    -315.688     155.298
  C      362.955    -315.553     154.542
  O      362.556    -316.911     154.391
  C      363.043    -315.185     156.009
  O      361.880    -315.582     156.714
  C      364.346    -315.890     156.408
  N      364.897    -315.379     157.665
  C      364.557    -316.067     158.819
  O      363.800    -317.047     158.819
  N      365.072    -315.579     159.988
  C      365.830    -314.451     160.116
  O      366.231    -314.038     161.192
  C      366.124    -313.729     158.865
  C      365.654    -314.221     157.709
  O      363.905    -311.418     152.145
  O      363.471    -310.664     154.559
  H      361.108    -315.061     156.407
  H      362.600    -310.481     154.164
  H      364.841    -316.078     160.832
  H      366.715    -312.825     158.930
  H      365.854    -313.709     156.769
  H      364.183    -316.962     156.522
  H      363.139    -314.097     156.136
  H      362.300    -314.890     153.974
  H      364.681    -316.244     153.397
  H      365.894    -313.945     153.604
  H      364.550    -314.087     152.442
  P      361.029    -317.386     154.582
  C      360.710    -318.266     152.182
  O      360.725    -318.594     153.567
  O      360.032    -316.267     154.519
  O      360.995    -318.092     156.022
  H      360.102    -318.004     156.407
  H      360.499    -319.145     151.610
  H      361.665    -317.876     151.897
  H      359.955    -317.530     151.998

 6  7  8  9  10  11  12  13  14  15  16  26  31  32  33  34  35 0
 6-311+G(2d,p)
 ****
 36  37 0
 6-311+G(2d,p)
 ****
 1  2  3  4  5  17  18  19  20  21  22  23  24  25 0
 3-21G
 ****
 27  28  29  30  38  39  40  41  42  43  44  45 0
 3-21G
 ****


