%nproc=1
%NoSave
%Mem=1900MB
#P OB98/GEN NMR

erre ene a

0 1
  C     -356.900    -317.147    -120.272
  O     -355.858    -317.938    -119.733
  H     -356.535    -316.125    -120.392
  H     -357.749    -317.137    -119.586
  H     -357.210    -317.528    -121.247
  P     -356.063    -319.529    -119.626
  C     -356.784    -319.523    -117.139
  O     -357.168    -319.768    -118.486
  C     -357.949    -319.784    -116.188
  O     -358.322    -321.189    -116.273
  C     -357.624    -319.491    -114.698
  O     -358.856    -319.085    -114.068
  C     -357.189    -320.869    -114.222
  O     -357.094    -320.959    -112.828
  C     -358.254    -321.724    -114.924
  N     -357.992    -323.162    -114.955
  C     -359.053    -324.007    -114.642
  O     -360.188    -323.644    -114.355
  N     -358.763    -325.355    -114.667
  C     -357.550    -325.904    -114.978
  O     -357.356    -327.117    -115.017
  C     -356.474    -324.954    -115.284
  C     -356.740    -323.646    -115.268
  O     -354.823    -320.342    -119.490
  O     -356.862    -319.890    -120.970
  H     -356.241    -320.278    -121.622
  H     -356.298    -320.471    -112.529
  H     -359.515    -325.984    -114.453
  H     -355.502    -325.360    -115.522
  H     -355.966    -322.924    -115.500
  H     -359.240    -321.549    -114.465
  H     -356.189    -321.096    -114.611
  H     -356.879    -318.708    -114.569
  H     -358.823    -319.208    -116.516
  H     -356.464    -318.475    -117.058
  H     -355.930    -320.173    -116.880
  P     -359.178    -317.574    -113.645
  C     -358.018    -317.895    -111.351
  O     -358.098    -317.122    -112.542
  O     -360.598    -317.340    -113.228
  O     -358.817    -316.687    -114.938
  H     -359.334    -315.864    -114.926
  H     -357.265    -317.486    -110.710
  H     -357.766    -318.905    -111.598
  H     -358.963    -317.875    -110.849

 6  7  8  9  10  11  12  13  14  15  16  27  31  32  33  34  35 0
 6-311+G(2d,p)
 ****
 36  37 0
 6-311+G(2d,p)
 ****
 1  2  3  4  5  17  18  19  20  21  22  23  24  25 0
 3-21G
 ****
 26  28  29  30  38  39  40  41  42  43  44  45 0
 3-21G
 ****


