%nproc=1
%NoSave
%Mem=1900MB
#P OB98/GEN NMR

erre ene a

0 1
  C      -60.984       3.114     283.375
  O      -61.104       4.394     282.780
  P      -60.152       4.732     281.533
  C      -58.844       6.823     282.359
  O      -58.835       5.418     282.141
  C      -57.481       7.283     282.881
  O      -57.350       7.003     284.288
  C      -56.296       6.587     282.222
  O      -55.966       7.155     280.963
  C      -55.194       6.868     283.233
  O      -54.689       8.204     283.052
  C      -55.950       6.759     284.568
  N      -53.439       4.133     288.088
  C      -53.470       5.494     287.858
  N      -52.678       6.259     288.638
  N      -54.220       6.060     286.945
  C      -54.955       5.172     286.230
  C      -55.010       3.803     286.370
  C      -54.169       3.191     287.377
  O      -54.057       1.991     287.591
  N      -55.882       3.245     285.472
  C      -56.355       4.269     284.793
  N      -55.794       5.455     285.187
  O      -60.900       5.950     280.812
  O      -59.917       3.588     280.604
  H      -54.388       8.261     282.121
  H      -60.565       6.056     279.905
  H      -52.842       3.742     288.801
  H      -57.093       4.197     284.001
  H      -55.625       7.514     285.285
  H      -54.343       6.188     283.135
  H      -52.031       5.879     289.314
  H      -56.457       5.507     282.149
  H      -52.633       7.252     288.448
  H      -57.419       8.369     282.742
  H      -59.616       7.067     283.088
  H      -59.078       7.330     281.419
  P      -54.958       6.319     280.039
  C      -53.140       8.178     279.964
  O      -53.496       6.877     280.389
  O      -55.246       6.902     278.572
  O      -55.134       4.840     280.103
  H      -55.026       6.239     277.894
  H      -52.243       8.489     280.505
  H      -53.942       8.893     280.169
  H      -52.918       8.171     278.894
  H      -61.675       3.032     284.188
  H      -59.987       2.983     283.740
  H      -61.199       2.360     282.646

 3  4  5  6  7  8  9  10  11  12  23  26  30  31 0
 6-311+G(2d,p)
 ****
 33  35  36  37  38 0
 6-311+G(2d,p)
 ****
 1  2  13  14  15  16  17  18  19  20  21  22  24  25 0
 3-21G
 ****
 27  28  29  32  34  39  40  41  42  43  44  45  46  47  48  49 0
 3-21G
 ****


