%nproc=1
%NoSave
%Mem=1900MB
#P OB98/GEN NMR

erre ene a

0 1
  C      106.671     -24.239    -598.143
  O      105.625     -24.741    -597.332
  P      104.181     -25.060    -597.960
  C      101.810     -24.132    -597.795
  O      103.159     -23.944    -597.423
  C      101.159     -22.805    -598.210
  O      100.974     -21.969    -597.027
  C      101.980     -21.985    -599.227
  O      101.037     -21.311    -600.062
  C      102.689     -20.974    -598.336
  O      103.131     -19.822    -599.048
  C      101.603     -20.696    -597.303
  N      101.241     -16.818    -593.985
  C      100.617     -17.061    -595.157
  N      100.789     -18.111    -596.006
  C      101.705     -18.945    -595.525
  C      102.455     -18.823    -594.362
  C      102.176     -17.697    -593.554
  N      102.789     -17.450    -592.344
  N      103.353     -19.877    -594.244
  C      103.141     -20.611    -595.308
  N      102.122     -20.144    -596.079
  O      103.719     -26.473    -597.785
  O      104.350     -24.697    -599.516
  H      102.363     -19.409    -599.490
  H      104.400     -25.510    -600.051
  H       99.878     -16.319    -595.460
  H      103.709     -21.508    -595.576
  H      100.823     -20.021    -597.690
  H      103.567     -21.434    -597.869
  H      102.671     -22.582    -599.820
  H      100.163     -23.020    -598.609
  H      101.275     -24.529    -596.917
  H      102.430     -16.694    -591.800
  H      103.284     -18.213    -591.879
  H      101.738     -24.861    -598.610
  P      101.326     -21.163    -601.641
  C      102.439     -19.431    -603.158
  O      102.104     -19.788    -601.825
  O      100.146     -21.353    -602.527
  O      102.462     -22.263    -601.913
  H      102.511     -22.450    -602.870
  H      103.325     -19.976    -603.467
  H      102.630     -18.354    -603.214
  H      101.616     -19.676    -603.855
  H      107.546     -24.092    -597.546
  H      106.372     -23.306    -598.573
  H      106.885     -24.939    -598.923

 3  4  5  6  7  8  9  10  11  12  22  25  29  30  31  32 0
 6-311+G(2d,p)
 ****
 33  36  37 0
 6-311+G(2d,p)
 ****
 1  2  13  14  15  16  17  18  19  20  21  23  24  26 0
 3-21G
 ****
 27  28  34  35  38  39  40  41  42  43  44  45  46  47  48 0
 3-21G
 ****


