%nproc=1
%NoSave
%Mem=1900MB
#P OB98/GEN NMR

erre ene a

0 1
  C      192.295     149.249    1145.188
  O      192.122     150.585    1145.611
  H      191.944     148.581    1145.981
  H      193.349     149.042    1144.993
  H      191.701     149.062    1144.288
  P      192.614     151.729    1144.597
  C      190.153     151.817    1143.795
  O      191.518     151.717    1143.422
  C      189.496     153.017    1143.113
  O      189.687     154.203    1143.900
  C      190.052     153.330    1141.728
  O      189.433     152.509    1140.746
  C      189.635     154.786    1141.574
  O      188.254     154.856    1141.173
  C      189.792     155.336    1142.998
  N      191.924     159.535    1145.043
  C      190.640     159.223    1144.782
  N      190.147     158.109    1144.184
  C      191.139     157.268    1143.861
  C      192.501     157.456    1144.061
  C      192.884     158.649    1144.698
  N      194.198     158.967    1144.961
  N      193.220     156.374    1143.596
  C      192.310     155.526    1143.172
  N      191.035     156.035    1143.275
  O      194.040     151.648    1144.167
  O      192.223     153.050    1145.414
  H      187.763     154.238    1141.747
  H      191.361     152.941    1145.851
  H      189.903     159.959    1145.084
  H      192.510     154.524    1142.802
  H      188.982     156.032    1143.260
  H      190.215     155.312    1140.817
  H      191.142     153.263    1141.703
  H      188.413     152.825    1143.071
  H      190.063     151.921    1144.883
  H      194.400     159.919    1145.231
  H      194.918     158.366    1144.578
  H      189.658     150.889    1143.497
  P      190.094     152.311    1139.302
  C      191.486     150.204    1139.779
  O      191.512     151.617    1139.580
  O      190.128     153.542    1138.464
  O      189.241     151.137    1138.633
  H      189.382     151.117    1137.668
  H      192.480     149.850    1139.955
  H      191.087     149.728    1138.907
  H      190.871     149.974    1140.624

 6  7  8  9  10  11  12  13  14  15  25  28  32  33  34  35 0
 6-311+G(2d,p)
 ****
 36  39  40 0
 6-311+G(2d,p)
 ****
 1  2  3  4  5  16  17  18  19  20  21  22  23  24 0
 3-21G
 ****
 26  27  29  30  31  37  38  41  42  43  44  45  46  47 0
 3-21G
 ****
 48 0
 3-21G
 ****


