%nproc=1
%NoSave
%Mem=1900MB
#P OB98/GEN NMR

erre ene a

0 1
  C      448.419     828.743     -48.922
  O      447.023     828.660     -49.114
  H      448.704     828.066     -48.111
  H      448.713     829.762     -48.650
  H      448.946     828.438     -49.838
  P      446.396     829.609     -50.248
  C      447.040     828.033     -52.181
  O      445.976     828.603     -51.423
  C      446.495     827.030     -53.200
  O      447.598     826.560     -54.015
  C      445.841     825.811     -52.556
  O      444.688     825.426     -53.331
  C      446.904     824.726     -52.656
  O      446.348     823.417     -52.662
  C      447.613     825.123     -53.959
  N      450.478     820.902     -54.177
  C      449.148     821.093     -54.291
  N      448.468     822.263     -54.230
  C      449.311     823.303     -54.084
  C      450.687     823.262     -53.945
  C      451.286     821.976     -53.983
  N      452.625     821.766     -53.832
  N      451.198     824.531     -53.762
  C      450.143     825.326     -53.807
  N      448.980     824.624     -53.984
  O      447.245     830.770     -50.660
  O      444.982     829.997     -49.601
  H      445.879     823.282     -51.807
  H      444.544     829.220     -49.205
  H      448.553     820.200     -54.441
  H      450.172     826.409     -53.699
  H      447.107     824.725     -54.841
  H      447.586     824.806     -51.803
  H      445.534     825.985     -51.518
  H      445.808     827.553     -53.879
  H      447.749     827.529     -51.512
  H      452.975     820.821     -53.895
  H      453.247     822.560     -53.717
  H      447.565     828.853     -52.689
  P      443.236     825.639     -52.690
  C      442.788     828.180     -52.857
  O      442.537     826.894     -53.412
  O      443.163     825.643     -51.201
  O      442.413     824.403     -53.306
  H      441.789     824.065     -52.621
  H      442.268     828.922     -53.426
  H      443.839     828.381     -52.884
  H      442.446     828.204     -51.843

 6  7  8  9  10  11  12  13  14  15  25  28  32  33  34  35 0
 6-311+G(2d,p)
 ****
 36  39  40 0
 6-311+G(2d,p)
 ****
 1  2  3  4  5  16  17  18  19  20  21  22  23  24 0
 3-21G
 ****
 26  27  29  30  31  37  38  41  42  43  44  45  46  47 0
 3-21G
 ****
 48 0
 3-21G
 ****


