%nproc=1
%NoSave
%Mem=1900MB
#P OB98/GEN NMR

erre ene a

0 1
  C      449.167     359.090     141.812
  O      449.834     358.332     140.825
  H      449.297     360.149     141.593
  H      449.610     358.879     142.793
  H      448.096     358.852     141.829
  P      449.462     356.776     140.710
  C      450.887     355.937     142.711
  O      449.585     356.161     142.194
  C      450.814     355.589     144.205
  O      450.184     356.698     144.905
  C      450.003     354.317     144.508
  O      450.610     353.624     145.602
  C      448.671     354.883     144.995
  O      447.958     353.959     145.815
  C      449.142     356.135     145.735
  N      445.294     357.136     148.793
  C      446.341     356.246     148.927
  N      446.338     355.460     150.031
  N      447.318     356.142     148.063
  C      447.205     357.003     147.019
  C      446.218     357.919     146.762
  C      445.138     358.019     147.728
  O      444.166     358.774     147.641
  N      446.439     358.560     145.572
  C      447.539     358.015     145.098
  N      448.047     357.060     145.947
  O      450.725     356.167     139.946
  O      448.180     356.473     140.002
  H      447.109     354.372     146.080
  H      450.544     356.127     138.984
  H      444.558     357.169     149.486
  H      448.000     358.250     144.146
  H      449.572     355.904     146.717
  H      448.033     355.140     144.133
  H      445.648     355.503     150.756
  H      449.888     353.638     143.660
  H      447.123     354.844     150.159
  H      451.834     355.495     144.588
  H      451.489     356.843     142.587
  H      451.366     355.127     142.156
  P      451.447     352.294     145.280
  C      449.601     350.483     144.976
  O      450.548     351.343     144.355
  O      451.472     351.523     146.683
  O      452.828     352.556     144.776
  H      452.319     351.048     146.785
  H      449.086     349.919     144.227
  H      448.896     351.068     145.529
  H      450.108     349.815     145.640

 6  7  8  9  10  11  12  13  14  15  26  29  33  34 0
 6-311+G(2d,p)
 ****
 36  38  39  40  41 0
 6-311+G(2d,p)
 ****
 1  2  3  4  5  16  17  18  19  20  21  22  23  24  25 0
 3-21G
 ****
 27  28  30  31  32  35  37  42  43  44  45  46  47 0
 3-21G
 ****
 48  49 0
 3-21G
 ****


