%nproc=1
%NoSave
%Mem=1900MB
#P OB98/GEN NMR

erre ene a

0 1
  C       66.338    -175.358     -77.124
  O       65.868    -176.537     -77.750
  H       66.332    -174.544     -77.855
  H       67.362    -175.507     -76.771
  H       65.691    -175.085     -76.286
  P       65.581    -177.787     -76.790
  C       67.599    -179.165     -77.743
  O       66.969    -178.582     -76.610
  C       68.886    -179.868     -77.322
  O       69.436    -180.630     -78.416
  C       70.016    -178.924     -76.941
  O       69.804    -178.298     -75.692
  C       71.198    -179.882     -76.946
  O       71.316    -180.585     -75.703
  C       70.828    -180.855     -78.091
  N       71.698    -180.689     -79.241
  C       72.980    -181.241     -79.108
  O       73.291    -181.835     -78.075
  N       73.877    -181.072     -80.129
  C       73.539    -180.387     -81.180
  N       74.488    -180.230     -82.143
  C       72.201    -179.788     -81.358
  C       71.337    -179.975     -80.359
  O       64.725    -178.755     -77.732
  O       64.916    -177.444     -75.500
  H       71.431    -179.901     -75.009
  H       65.117    -178.897     -78.608
  H       71.964    -179.239     -82.257
  H       70.334    -179.570     -80.408
  H       70.905    -181.898     -77.751
  H       72.143    -179.358     -77.102
  H       70.175    -178.183     -77.737
  H       68.648    -180.556     -76.501
  H       75.409    -180.609     -81.951
  H       67.811    -178.403     -78.500
  H       74.364    -179.654     -82.961
  H       66.898    -179.882     -78.181
  P       70.444    -176.870     -75.360
  C       72.227    -178.042     -73.914
  O       71.987    -177.130     -74.982
  O       69.699    -176.054     -74.359
  O       70.568    -176.182     -76.800
  H       71.123    -176.665     -77.440
  H       73.281    -178.135     -73.754
  H       71.819    -178.999     -74.164
  H       71.762    -177.677     -73.022

 6  7  8  9  10  11  12  13  14  15  16  26  30  31  32  33  35 0
 6-311+G(2d,p)
 ****
 37  38 0
 6-311+G(2d,p)
 ****
 1  2  3  4  5  17  18  19  20  21  22  23  24  25 0
 3-21G
 ****
 27  28  29  34  36  39  40  41  42  43  44  45  46 0
 3-21G
 ****


