%nproc=1
%NoSave
%Mem=1900MB
#P OB98/GEN NMR

erre ene a

0 1
  C      -69.713     563.313       4.672
  O      -69.896     564.711       4.577
  H      -70.661     562.854       4.964
  H      -68.961     563.080       5.428
  H      -69.407     562.909       3.704
  P      -68.584     565.584       4.267
  C      -67.929     564.628       1.930
  O      -68.558     565.670       2.662
  C      -68.671     564.391       0.620
  O      -69.903     563.669       0.855
  C      -69.087     565.663      -0.117
  O      -68.023     566.284      -0.811
  C      -70.124     565.090      -1.062
  O      -69.465     564.380      -2.128
  C      -70.875     564.122      -0.127
  N      -72.026     564.743       0.540
  C      -73.175     564.927      -0.240
  O      -73.198     564.584      -1.420
  N      -74.268     565.538       0.333
  C      -74.226     565.909       1.576
  N      -75.337     566.508       2.084
  C      -73.041     565.721       2.430
  C      -71.991     565.138       1.858
  O      -67.383     564.575       4.582
  O      -68.491     566.897       4.968
  H      -68.875     563.729      -1.705
  H      -66.526     564.966       4.282
  H      -73.049     566.058       3.457
  H      -71.085     564.966       2.428
  H      -71.226     563.238      -0.673
  H      -70.751     565.848      -1.531
  H      -69.580     566.372       0.559
  H      -68.037     563.757      -0.014
  H      -76.109     566.675       1.452
  H      -67.945     563.720       2.541
  H      -75.350     566.964       2.987
  H      -66.892     564.897       1.713
  P      -68.110     567.875      -1.027
  C      -66.177     568.812       0.446
  O      -66.625     568.450      -0.855
  O      -68.857     568.378       0.294
  O      -68.826     568.299      -2.272
  H      -69.432     569.144       0.099
  H      -65.172     569.175       0.389
  H      -66.211     567.955       1.086
  H      -66.811     569.578       0.841

 6  7  8  9  10  11  12  13  14  15  16  26  30  31  32  33  35 0
 6-311+G(2d,p)
 ****
 37  38 0
 6-311+G(2d,p)
 ****
 1  2  3  4  5  17  18  19  20  21  22  23  24  25 0
 3-21G
 ****
 27  28  29  34  36  39  40  41  42  43  44  45  46 0
 3-21G
 ****


