%nproc=1
%NoSave
%Mem=1900MB
#P OB98/GEN NMR

erre ene a

0 1
  C      414.484      51.215     550.206
  O      415.224      51.565     551.357
  H      414.123      50.189     550.313
  H      415.119      51.275     549.318
  H      413.618      51.878     550.093
  P      415.818      53.051     551.407
  C      417.868      52.469     549.914
  O      417.402      52.912     551.185
  C      418.951      53.416     549.408
  O      418.383      54.729     549.173
  C      420.090      53.637     550.390
  O      421.015      52.561     550.403
  C      420.682      54.938     549.876
  O      421.589      54.709     548.790
  C      419.442      55.696     549.383
  N      420.006      60.578     550.784
  C      420.511      59.867     549.744
  N      420.304      58.573     549.436
  C      419.449      58.008     550.315
  C      418.855      58.601     551.415
  C      419.167      59.952     551.641
  N      418.678      60.664     552.714
  N      418.077      57.681     552.099
  C      418.199      56.564     551.414
  N      419.012      56.709     550.331
  O      415.684      53.447     552.951
  O      415.135      54.037     550.521
  H      421.941      55.589     548.539
  H      414.898      54.008     553.081
  H      421.174      60.417     549.083
  H      417.720      55.623     551.670
  H      419.614      56.204     548.421
  H      421.231      55.457     550.664
  H      419.691      53.805     551.399
  H      419.336      53.033     548.447
  H      417.033      52.461     549.207
  H      418.256      51.454     550.013
  H      418.984      61.608     552.849
  H      418.137      60.178     553.418
  P      420.741      51.344     551.412
  C      421.081      52.645     553.657
  O      421.558      51.655     552.753
  O      421.519      50.115     550.761
  O      419.296      51.039     551.640
  H      421.026      49.285     550.913
  H      421.748      52.718     554.491
  H      420.106      52.372     554.003
  H      421.031      53.590     553.157

 6  7  8  9  10  11  12  13  14  15  25  28  32  33  34  35 0
 6-311+G(2d,p)
 ****
 36  37  40 0
 6-311+G(2d,p)
 ****
 1  2  3  4  5  16  17  18  19  20  21  22  23  24 0
 3-21G
 ****
 26  27  29  30  31  38  39 41  42  43  44  45  46  47  48 0
 3-21G
 ****


