%nproc=1
%NoSave
%Mem=1900MB
#P OB98/GEN NMR

erre ene a

0 1
  C      333.263      38.598    -106.021
  O      333.317      39.318    -104.800
  P      332.064      40.257    -104.437
  C      329.541      39.826    -103.999
  O      330.758      39.331    -104.545
  C      328.327      39.181    -104.672
  O      328.133      39.788    -105.972
  C      328.450      37.668    -104.868
  O      327.159      37.094    -104.659
  C      328.821      37.531    -106.333
  O      328.453      36.257    -106.853
  C      328.069      38.725    -106.942
  N      328.634      39.137    -108.224
  C      328.199      38.445    -109.358
  O      327.437      37.487    -109.241
  N      328.678      38.824    -110.586
  C      329.593      39.739    -110.667
  N      330.033      40.080    -111.907
  C      330.170      40.406    -109.482
  C      329.636      40.075    -108.308
  O      331.949      41.207    -105.720
  O      332.211      41.031    -103.172
  H      328.950      35.569    -106.355
  H      331.615      42.089    -105.471
  H      330.959      41.136    -109.602
  H      329.979      40.531    -107.389
  H      327.010      38.477    -107.095
  H      329.903      37.656    -106.457
  H      329.174      37.210    -104.188
  H      327.440      39.413    -104.069
  H      329.632      39.600    -112.702
  H      329.489      40.905    -104.165
  H      330.745      40.783    -112.065
  H      329.526      39.646    -102.921
  P      327.089      35.529    -104.313
  C      327.630      34.172    -102.201
  O      327.832      35.386    -102.897
  O      328.190      34.929    -105.313
  O      325.783      34.827    -104.467
  H      328.205      33.959    -105.244
  H      328.293      34.154    -101.332
  H      327.865      33.319    -102.842
  H      326.595      34.110    -101.852
  H      334.156      38.019    -106.133
  H      333.179      39.285    -106.837
  H      332.414      37.947    -106.014

 3  4  5  6  7  8  9  10  11  12  13  21  23  27  28  29  30  32 0
 6-311+G(2d,p)
 ****
 34  35 0
 6-311+G(2d,p)
 ****
 1  2  14  15  16  17  18  19  20  22  24  25  26 0
 3-21G
 ****
 31  33  36  37  38  39  40  41  42  43  44  45  46 0
 3-21G
 ****


