%nproc=1
%NoSave
%Mem=1900MB
#P OB98/GEN NMR

erre ene a

0 1
  C      242.301    -210.026     243.790
  O      242.113    -209.109     244.845
  H      243.377    -210.154     243.632
  H      241.863    -209.642     242.866
  H      241.865    -210.996     244.040
  P      240.619    -208.696     245.268
  C      238.573    -209.950     246.179
  O      239.908    -210.072     245.706
  C      238.134    -211.211     246.921
  O      238.030    -212.315     245.981
  C      239.099    -211.642     248.035
  O      238.362    -211.947     249.222
  C      239.730    -212.913     247.489
  O      240.224    -213.776     248.511
  C      238.579    -213.469     246.644
  N      239.029    -214.489     245.707
  C      238.875    -215.815     246.122
  O      238.382    -216.072     247.219
  N      239.338    -216.821     245.308
  C      239.940    -216.523     244.202
  N      240.404    -217.564     243.457
  C      240.150    -215.135     243.740
  C      239.669    -214.177     244.531
  O      239.880    -207.898     244.248
  O      240.786    -207.928     246.664
  H      240.589    -214.582     248.088
  H      240.001    -207.353     246.806
  H      240.669    -214.940     242.811
  H      239.775    -213.128     244.279
  H      237.797    -213.900     247.285
  H      240.575    -212.646     246.835
  H      239.852    -210.888     248.267
  H      237.122    -211.048     247.315
  H      240.243    -218.499     243.816
  H      237.915    -209.759     245.323
  H      240.909    -217.454     242.593
  H      238.526    -209.098     246.865
  P      238.326    -210.801     250.346
  C      237.055    -208.557     250.648
  O      237.087    -209.830     250.022
  O      239.613    -209.913     250.009
  O      238.373    -211.332     251.740
  H      240.290    -210.033     250.702
  H      236.178    -208.029     250.338
  H      237.925    -208.000     250.368
  H      237.039    -208.682     251.711

 6  7  8  9  10  11  12  13  14  15  16  26  30  31  32  33  35 0
 6-311+G(2d,p)
 ****
 37  38 0
 6-311+G(2d,p)
 ****
 1  2  3  4  5  17  18  19  20  21  22  23  24  25 0
 3-21G
 ****
 27  28  29  34  36  39  40  41  42  43  44  45  46 0
 3-21G
 ****


