%nproc=1
%NoSave
%Mem=1900MB
#P OB98/GEN NMR

erre ene a

0 1
  C       37.105      54.663     -85.622
  O       35.942      54.627     -84.818
  H       36.824      54.993     -86.626
  H       37.558      53.672     -85.695
  H       37.826      55.374     -85.211
  P       36.046      54.021     -83.336
  C       35.700      51.523     -83.865
  O       36.629      52.532     -83.494
  C       35.805      50.318     -82.928
  O       37.144      49.759     -83.043
  C       35.558      50.660     -81.452
  O       34.849      49.575     -80.849
  C       36.964      50.757     -80.896
  O       36.986      50.542     -79.498
  C       37.720      49.713     -81.724
  N       39.155      49.990     -81.743
  C       39.827      49.891     -80.518
  O       39.213      49.569     -79.498
  N       41.158      50.219     -80.461
  C       41.760      50.664     -81.521
  N       43.069      51.008     -81.386
  C       41.083      50.811     -82.828
  C       39.799      50.456     -82.870
  O       34.817      54.125     -82.495
  O       37.272      54.822     -82.687
  H       37.915      50.448     -79.196
  H       36.946      55.623     -82.234
  H       41.626      51.191     -83.680
  H       39.218      50.542     -83.784
  H       37.561      48.706     -81.320
  H       37.369      51.760     -81.088
  H       34.999      51.593     -81.319
  H       35.107      49.545     -83.272
  H       43.480      50.913     -80.465
  H       35.931      51.212     -84.892
  H       43.627      51.404     -82.129
  H       34.682      51.928     -83.840
  P       33.268      49.414     -81.063
  C       32.585      49.207     -78.603
  O       32.498      50.005     -79.779
  O       32.828      48.040     -81.469
  O       32.928      50.474     -82.219
  H       32.167      50.149     -82.740
  H       32.045      49.681     -77.810
  H       33.611      49.098     -78.321
  H       32.164      48.242     -78.795

 6  7  8  9  10  11  12  13  14  15  16  26  30  31  32  33  35 0
 6-311+G(2d,p)
 ****
 37  38 0
 6-311+G(2d,p)
 ****
 1  2  3  4  5  17  18  19  20  21  22  23  24  25 0
 3-21G
 ****
 27  28  29  34  36  39  40  41  42  43  44  45  46 0
 3-21G
 ****


