%nproc=1
%NoSave
%Mem=1900MB
#P OB98/GEN NMR

erre ene a

0 1
  C      189.094     486.766     204.037
  O      189.049     486.494     202.651
  H      189.352     485.845     204.567
  H      188.112     487.106     204.382
  H      189.850     487.525     204.254
  P      188.860     487.755     201.673
  C      191.408     487.641     201.047
  O      190.317     488.408     201.523
  C      192.688     487.996     201.805
  O      192.465     487.781     203.222
  C      193.900     487.158     201.393
  O      195.064     487.985     201.457
  C      193.979     486.097     202.476
  O      195.287     485.546     202.596
  C      193.487     486.884     203.702
  N      192.984     486.011     204.760
  C      193.877     485.691     205.787
  O      195.029     486.125     205.768
  N      193.462     484.853     206.792
  C      192.282     484.323     206.740
  N      191.938     483.482     207.752
  C      191.320     484.598     205.651
  C      191.729     485.449     204.713
  O      188.077     488.783     202.617
  O      188.166     487.442     200.391
  H      195.342     485.056     203.448
  H      188.441     488.840     203.515
  H      190.349     484.127     205.649
  H      191.086     485.713     203.881
  H      194.299     487.497     204.117
  H      193.287     485.276     202.251
  H      193.802     486.735     200.391
  H      192.885     489.066     201.673
  H      192.635     483.304     208.464
  H      191.559     487.817     199.978
  H      191.068     482.971     207.786
  H      191.165     486.583     201.187
  P      195.431     488.926     200.215
  C      195.087     491.182     201.436
  O      194.672     490.330     200.373
  O      195.327     488.295     198.869
  O      196.959     489.330     200.522
  H      197.445     489.310     199.676
  H      194.501     492.077     201.425
  H      196.120     491.430     201.312
  H      194.951     490.679     202.370

 6  7  8  9  10  11  12  13  14  15  16  26  30  31  32  33  35 0
 6-311+G(2d,p)
 ****
 37  38 0
 6-311+G(2d,p)
 ****
 1  2  3  4  5  17  18  19  20  21  22  23  24  25 0
 3-21G
 ****
 27  28  29  34  36  39  40  41  42  43  44  45  46 0
 3-21G
 ****


