%nproc=1
%NoSave
%Mem=1900MB
#P OB98/GEN NMR

erre ene a

0 1
  C     -220.315     557.847     109.959
  O     -221.114     556.770     109.456
  P     -221.152     556.364     107.904
  C     -222.069     554.057     108.605
  O     -222.179     555.149     107.697
  C     -223.302     553.149     108.549
  O     -224.426     553.785     109.183
  C     -223.772     552.794     107.145
  O     -222.935     551.814     106.556
  C     -225.200     552.332     107.421
  O     -225.225     550.965     107.863
  C     -225.627     553.282     108.557
  N     -226.479     554.369     108.091
  C     -227.854     554.110     108.043
  O     -228.288     552.990     108.331
  N     -228.700     555.116     107.647
  C     -228.210     556.252     107.256
  N     -229.096     557.213     106.882
  C     -226.761     556.536     107.208
  C     -225.965     555.561     107.634
  O     -219.804     556.129     107.305
  O     -221.881     557.591     107.171
  H     -224.921     550.427     107.108
  H     -221.529     557.673     106.268
  H     -226.397     557.486     106.849
  H     -224.890     555.687     107.638
  H     -226.162     552.727     109.339
  H     -225.839     552.397     106.538
  H     -223.796     553.700     106.525
  H     -223.070     552.237     109.115
  H     -230.081     556.991     106.934
  H     -221.963     554.461     109.619
  H     -228.823     558.132     106.567
  H     -221.167     553.486     108.362
  P     -222.092     552.178     105.242
  C     -220.391     550.337     105.800
  O     -221.268     550.872     104.822
  O     -221.299     553.439     105.310
  O     -223.208     552.269     104.094
  H     -222.925     552.928     103.429
  H     -220.210     549.282     105.571
  H     -220.823     550.419     106.803
  H     -219.440     550.874     105.768
  H     -220.452     557.928     111.017
  H     -220.613     558.761     109.490
  H     -219.284     557.656     109.746

 3  4  5  6  7  8  9  10  11  12  13  23  27  28  29  30  32 0
 6-311+G(2d,p)
 ****
 34  35 0
 6-311+G(2d,p)
 ****
 1  2  14  15  16  17  18  19  20  21  22  24  25  26 0
 3-21G
 ****
 31  33  36  37  38  39  40  41  42  43  44  45  46 0
 3-21G
 ****


