%nproc=1
%NoSave
%Mem=1900MB
#P OB98/GEN NMR

erre ene a

0 1
  C     -245.136    -899.896     173.291
  O     -246.386    -899.566     172.706
  P     -247.604    -899.221     173.661
  C     -248.549    -897.855     171.649
  O     -248.823    -898.751     172.711
  C     -249.843    -897.391     170.974
  O     -250.740    -896.831     171.940
  C     -249.628    -896.303     169.934
  O     -249.192    -896.825     168.678
  C     -251.038    -895.756     169.815
  O     -251.841    -896.598     168.972
  C     -251.530    -895.816     171.261
  N     -253.593    -891.237     171.959
  C     -254.093    -892.368     171.326
  N     -255.316    -892.200     170.718
  N     -253.511    -893.498     171.263
  C     -252.295    -893.510     171.894
  C     -251.660    -892.456     172.551
  C     -252.349    -891.188     172.600
  O     -251.912    -890.145     173.097
  N     -250.449    -892.846     173.082
  C     -250.316    -894.107     172.716
  N     -251.390    -894.552     171.967
  O     -247.168    -897.871     174.386
  O     -247.956    -900.300     174.642
  H     -251.630    -896.386     168.050
  H     -247.713    -897.707     175.187
  H     -254.109    -890.363     171.961
  H     -249.492    -894.726     172.975
  H     -252.598    -896.127     171.331
  H     -251.082    -894.754     169.378
  H     -255.810    -891.328     170.677
  H     -248.961    -895.516     170.290
  H     -255.706    -892.999     170.200
  H     -250.314    -898.276     170.526
  H     -247.889    -898.348     170.915
  H     -247.992    -896.975     172.055
  P     -248.401    -895.843     167.690
  C     -246.989    -897.886     166.968
  O     -247.743    -896.756     166.572
  O     -247.180    -895.336     168.575
  O     -249.260    -894.680     167.202
  H     -246.879    -894.442     168.302
  H     -246.847    -898.554     166.119
  H     -247.548    -898.448     167.757
  H     -246.016    -897.576     167.355
  H     -244.424    -900.101     172.519
  H     -245.249    -900.761     173.910
  H     -244.792    -899.075     173.885

 3  4  5  6  7  8  9  10  11  12  23  26  30  31 0
 6-311+G(2d,p)
 ****
 33  35  36  37  38 0
 6-311+G(2d,p)
 ****
 1  2  13  14  15  16  17  18  19  20  21  22  24  25 0
 3-21G
 ****
 27  28  29  32  34  39  40  41  42  43  44  45  46  47  48  49 0
 3-21G
 ****


