%nproc=1
%NoSave
%Mem=1900MB
#P OB98/GEN NMR

erre ene a

0 1
  C       35.638     -97.226     264.989
  O       36.262     -96.464     266.004
  H       35.081     -98.043     265.456
  H       36.392     -97.650     264.316
  H       34.940     -96.600     264.426
  P       37.164     -95.225     265.523
  C       39.023     -96.240     267.024
  O       38.675     -95.730     265.740
  C       39.851     -97.514     266.886
  O       39.170     -98.464     266.040
  C       41.233     -97.307     266.274
  O       42.156     -96.880     267.258
  C       41.547     -98.716     265.781
  O       42.027     -99.512     266.882
  C       40.170     -99.229     265.318
  N       40.412    -101.597     260.766
  C       40.925    -101.919     261.972
  N       40.869    -101.220     263.124
  C       40.193    -100.068     262.956
  C       39.616     -99.602     261.779
  C       39.742    -100.426     260.644
  N       39.218    -100.087     259.414
  N       39.006     -98.379     261.981
  C       39.160     -98.146     263.267
  N       39.901     -99.122     263.894
  O       36.815     -93.900     266.122
  O       36.991     -95.324     263.934
  H       42.128    -100.423     266.548
  H       37.016     -96.250     263.643
  H       41.455    -102.866     262.015
  H       38.743     -97.300     263.802
  H       40.028    -100.288     265.584
  H       42.322     -98.724     265.015
  H       41.195     -96.622     265.409
  H       39.938     -97.971     267.886
  H       38.114     -96.446     267.608
  H       39.523    -100.636     258.624
  H       38.837     -99.158     259.300
  H       39.597     -95.464     267.547
  P       43.006     -95.536     267.070
  C       45.208     -96.865     266.904
  O       44.309     -95.982     266.238
  O       43.270     -94.785     268.332
  O       42.174     -94.684     266.006
  H       42.465     -93.746     266.019
  H       46.031     -97.091     266.258
  H       44.696     -97.769     267.159
  H       45.572     -96.398     267.795

 6  7  8  9  10  11  12  13  14  15  25  28  32  33  34  35 0
 6-311+G(2d,p)
 ****
 36  39  40 0
 6-311+G(2d,p)
 ****
 1  2  3  4  5  16  17  18  19  20  21  22  23  24 0
 3-21G
 ****
 26  27  29  30  31  37  38  41  42  43  44  45  46  47 0
 3-21G
 ****
 48 0
 3-21G
 ****


