%nproc=1
%NoSave
%Mem=1900MB
#P OB98/GEN NMR

erre ene a

0 1
  C     -895.460    -281.493    -662.437
  O     -894.880    -280.959    -663.633
  P     -894.290    -281.889    -664.800
  C     -895.760    -281.084    -666.755
  O     -895.430    -282.168    -665.884
  C     -897.180    -280.553    -666.460
  O     -897.220    -279.922    -665.166
  C     -897.670    -279.484    -667.433
  O     -898.060    -280.070    -668.670
  C     -898.800    -278.853    -666.637
  O     -900.000    -279.623    -666.743
  C     -898.240    -278.907    -665.198
  N     -897.720    -277.620    -664.760
  C     -898.630    -276.557    -664.732
  O     -899.790    -276.717    -665.138
  N     -898.210    -275.333    -664.284
  C     -896.960    -275.165    -663.956
  N     -896.590    -273.930    -663.505
  C     -895.950    -276.233    -664.048
  C     -896.390    -277.427    -664.450
  O     -893.600    -283.119    -664.307
  O     -893.240    -280.950    -665.583
  H     -899.810    -280.503    -666.389
  H     -892.530    -281.508    -665.950
  H     -894.910    -276.049    -663.797
  H     -895.720    -278.274    -664.543
  H     -899.020    -279.237    -664.492
  H     -899.030    -277.843    -666.975
  H     -896.880    -278.739    -667.604
  H     -897.860    -281.403    -666.451
  H     -897.310    -273.223    -663.447
  H     -895.720    -281.451    -667.793
  H     -895.650    -273.696    -663.222
  H     -895.020    -280.288    -666.627
  P     -897.000    -280.211    -669.856
  C     -897.110    -282.679    -670.551
  O     -896.400    -281.700    -669.808
  O     -895.970    -279.125    -669.945
  O     -897.910    -280.243    -671.180
  H     -897.410    -279.832    -671.920
  H     -896.430    -283.511    -670.769
  H     -897.480    -282.269    -671.494
  H     -897.950    -283.052    -669.954
  H     -895.783    -280.690    -661.808
  H     -894.731    -282.081    -661.919
  H     -896.299    -282.107    -662.691

 3  4  5  6  7  8  9  10  11  12  13  23  27  28  29  30  32 0
 6-311+G(2d,p)
 ****
 34  35 0
 6-311+G(2d,p)
 ****
 1  2  14  15  16  17  18  19  20  21  22  24  25  26 0
 3-21G
 ****
 31  33  36  37  38  39  40  41  42  43  44  45  46 0
 3-21G
 ****


