%nproc=1
%NoSave
%Mem=1900MB
#P OB98/GEN NMR

erre ene a

0 1
  C     -403.489     -10.562    -281.788
  O     -404.044      -9.839    -280.679
  P     -405.064     -10.660    -279.742
  C     -407.392     -10.366    -280.887
  O     -406.260     -11.217    -280.671
  C     -408.322     -10.926    -281.962
  O     -408.996     -12.106    -281.462
  C     -409.417      -9.947    -282.429
  O     -409.629     -10.126    -283.841
  C     -410.660     -10.463    -281.716
  O     -411.863     -10.053    -282.378
  C     -410.389     -11.964    -281.741
  N     -413.475     -15.928    -281.055
  C     -412.753     -15.547    -282.178
  N     -412.891     -16.328    -283.275
  N     -411.966     -14.502    -282.212
  C     -411.904     -13.835    -281.032
  C     -412.564     -14.112    -279.859
  C     -413.470     -15.245    -279.843
  O     -414.178     -15.595    -278.896
  N     -412.244     -13.188    -278.876
  C     -411.408     -12.369    -279.460
  N     -411.173     -12.710    -280.764
  O     -405.755      -9.510    -278.866
  O     -404.404     -11.681    -278.877
  H     -411.737     -10.218    -283.328
  H     -405.634      -9.698    -277.916
  H     -414.079     -16.728    -281.089
  H     -410.953     -11.504    -278.998
  H     -410.584     -12.380    -282.735
  H     -410.683     -10.063    -280.697
  H     -413.425     -17.182    -283.298
  H     -409.217      -8.895    -282.213
  H     -412.324     -16.101    -284.089
  H     -407.708     -11.240    -282.816
  H     -407.041      -9.362    -281.184
  H     -407.926     -10.255    -279.938
  P     -408.725      -9.218    -284.822
  C     -410.259      -7.128    -284.522
  O     -408.978      -7.709    -284.355
  O     -409.497      -9.319    -286.226
  O     -407.306      -9.664    -284.919
  H     -408.871      -9.197    -286.956
  H     -411.006      -7.883    -284.796
  H     -410.208      -6.389    -285.323
  H     -410.557      -6.653    -283.596
  H     -402.830      -9.922    -282.337
  H     -404.279     -10.894    -282.428
  H     -402.944     -11.408    -281.425

 3  4  5  6  7  8  9  10  11  12  23  26  30  31  33  0
 6-311+G(2d,p)
 ****
 35  36  37  38 0
 6-311+G(2d,p)
 ****
 1  2  13  14  15  16  17  18  19  20  21  22  24  25  27  28  29 0
 3-21G
 ****
 32  34  39  40  41  42  43  44  45  46  47  48  49 0
 3-21G
 ****


