%nproc=1
%NoSave
%Mem=1900MB
#P OB98/GEN NMR

erre ene a

0 1
  C     -899.043     549.762    -269.565
  O     -898.023     550.330    -268.736
  P     -897.923     550.141    -267.159
  C     -895.353     549.810    -267.531
  O     -896.393     550.350    -266.724
  C     -894.003     549.733    -266.789
  O     -893.403     551.043    -266.677
  C     -894.233     549.230    -265.346
  O     -894.323     547.843    -265.078
  C     -893.133     549.951    -264.533
  O     -891.963     549.142    -264.399
  C     -892.843     551.203    -265.372
  N     -891.903     554.970    -262.034
  C     -891.153     553.850    -262.323
  N     -890.013     553.694    -261.594
  N     -891.473     552.963    -263.225
  C     -892.663     553.205    -263.819
  C     -893.523     554.261    -263.608
  C     -893.123     555.278    -262.644
  O     -893.753     556.290    -262.367
  N     -894.653     554.165    -264.386
  C     -894.493     553.026    -265.032
  N     -893.313     552.400    -264.739
  O     -898.633     548.942    -266.599
  O     -898.663     551.466    -266.583
  H     -891.323     549.631    -263.868
  H     -899.093     551.193    -265.746
  H     -891.603     555.639    -261.344
  H     -895.223     552.618    -265.746
  H     -891.753     551.307    -265.521
  H     -893.493     550.153    -263.528
  H     -889.773     554.267    -260.806
  H     -895.163     549.663    -265.000
  H     -889.573     552.766    -261.651
  H     -893.293     549.123    -267.344
  H     -895.253     550.453    -268.411
  H     -895.623     548.824    -267.893
  P     -895.663     546.961    -265.224
  C     -894.253     544.861    -265.716
  O     -895.273     545.429    -264.898
  O     -895.933     546.921    -266.811
  O     -896.843     547.473    -264.492
  H     -896.843     546.618    -266.990
  H     -894.293     543.762    -265.611
  H     -893.273     545.198    -265.368
  H     -894.383     545.131    -266.779
  H     -898.874     550.045    -270.583
  H     -900.000     550.121    -269.249
  H     -899.017     548.696    -269.482

 3  4  5  6  7  8  9  10  11  12  23  26  30  31 0
 6-311+G(2d,p)
 ****
 33  35  36  37  38 0
 6-311+G(2d,p)
 ****
 1  2  13  14  15  16  17  18  19  20  21  22  24  25 0
 3-21G
 ****
 27  28  29  32  34  39  40  41  42  43  44  45  46  47  48  49 0
 3-21G
 ****


