%nproc=1
%NoSave
%Mem=1900MB
#P OB98/GEN NMR

erre ene a

0 1
  C      -96.307    -251.334      -0.534
  O      -95.667    -251.600       0.718
  P      -94.782    -252.942       0.789
  C      -92.307    -252.403       0.223
  O      -93.292    -252.525       1.238
  C      -90.990    -251.846       0.784
  O      -91.230    -250.662       1.610
  C      -90.213    -252.848       1.651
  O      -88.819    -252.597       1.429
  C      -90.579    -252.425       3.062
  O      -89.646    -252.930       4.024
  C      -90.584    -250.902       2.885
  N      -89.918    -248.171       7.083
  C      -88.994    -248.828       6.299
  N      -87.696    -248.696       6.651
  N      -89.315    -249.547       5.252
  C      -90.650    -249.562       4.993
  C      -91.661    -248.940       5.691
  C      -91.294    -248.171       6.868
  O      -92.074    -247.569       7.598
  N      -92.891    -249.154       5.104
  C      -92.613    -249.964       4.091
  N      -91.267    -250.190       3.949
  O      -94.619    -253.349      -0.749
  O      -95.409    -254.036       1.592
  H      -89.583    -253.902       3.886
  H      -95.239    -254.068      -0.975
  H      -89.618    -247.645       7.892
  H      -93.343    -250.390       3.419
  H      -89.569    -250.484       2.839
  H      -91.580    -252.790       3.325
  H      -87.379    -248.113       7.415
  H      -90.449    -253.900       1.452
  H      -86.992    -249.134       6.063
  H      -90.362    -251.530      -0.063
  H      -92.665    -251.735      -0.570
  H      -92.153    -253.378      -0.249
  P      -88.021    -253.597       0.457
  C      -87.990    -252.127      -1.679
  O      -87.241    -252.689      -0.616
  O      -89.195    -254.271      -0.406
  O      -87.200    -254.634       1.156
  H      -88.987    -255.219      -0.550
  H      -87.486    -251.216      -2.022
  H      -89.008    -251.863      -1.370
  H      -88.036    -252.834      -2.513
  H      -96.863    -250.423      -0.464
  H      -96.970    -252.139      -0.774
  H      -95.566    -251.241      -1.301

 3  4  5  6  7  8  9  10  11  12  23  26  30  31 0
 6-311+G(2d,p)
 ****
 33  35  36  37  38 0
 6-311+G(2d,p)
 ****
 1  2  13  14  15  16  17  18  19  20  21  22  24  25 0
 3-21G
 ****
 27  28  29  32  34  39  40  41  42  43  44  45  46  47  48  49 0
 3-21G
 ****


