%nproc=1
%NoSave
%Mem=1900MB
#P OB98/GEN NMR

erre ene a

0 1
  C       38.089    -431.860     166.691
  O       38.411    -432.023     168.073
  P       37.240    -432.306     169.126
  C       39.265    -432.635     170.702
  O       37.865    -432.408     170.600
  C       39.581    -433.406     171.988
  O       39.123    -432.687     173.160
  C       38.874    -434.753     172.058
  O       39.319    -435.755     171.164
  C       38.932    -435.071     173.543
  O       40.186    -435.649     173.909
  C       38.781    -433.664     174.170
  N       37.444    -433.425     174.707
  C       37.327    -433.462     176.093
  O       38.265    -433.718     176.845
  N       36.074    -433.226     176.594
  C       34.947    -432.996     175.860
  O       33.845    -432.813     176.357
  C       35.129    -432.996     174.398
  C       36.347    -433.207     173.898
  O       36.291    -433.395     168.763
  O       36.470    -430.896     169.183
  H       40.235    -436.530     173.490
  H       35.510    -431.081     169.214
  H       35.972    -433.239     177.595
  H       34.252    -432.825     173.783
  H       36.504    -433.211     172.824
  H       39.500    -433.530     174.989
  H       38.155    -435.780     173.835
  H       37.817    -434.591     171.814
  H       40.664    -433.515     172.073
  H       39.798    -431.683     170.689
  H       39.603    -433.188     169.817
  P       38.396    -436.366     170.006
  C       40.445    -437.227     168.669
  O       39.214    -437.543     169.281
  O       37.657    -435.409     169.137
  O       37.325    -437.203     170.869
  H       36.470    -437.186     170.397
  H       40.852    -438.135     168.213
  H       41.157    -436.859     169.410
  H       40.302    -436.482     167.884
  H       38.985    -431.679     166.135
  H       37.424    -431.030     166.575
  H       37.617    -432.749     166.328

 3  4  5  6  7  8  9  10  11  12  13  23  28  29  30  31  32 0
 6-311+G(2d,p)
 ****
 33  34 0
 6-311+G(2d,p)
 ****
 1  2  14  15  16  17  18  19  20  21  22  24  25  26  27 0
 3-21G
 ****
 35  36  37  38  39  40  41  42  43  44  45 0
 3-21G
 ****


