%nproc=1
%NoSave
%Mem=1900MB
#P OB98/GEN NMR

erre ene a

0 1
  C       62.902    -480.185     591.572
  O       62.874    -480.893     590.322
  P       64.321    -481.358     589.751
  C       65.334    -479.270     588.591
  O       64.614    -480.480     588.441
  C       64.914    -478.242     587.526
  O       65.019    -478.811     586.194
  C       63.478    -477.737     587.698
  O       63.465    -476.355     587.301
  C       62.717    -478.594     586.687
  O       61.428    -478.093     586.379
  C       63.728    -478.611     585.547
  N       60.832    -479.888     581.550
  C       60.857    -478.794     582.333
  N       61.656    -478.534     583.393
  C       62.516    -479.537     583.594
  C       62.614    -480.720     582.870
  C       61.732    -480.891     581.793
  N       61.678    -482.005     580.997
  N       63.614    -481.533     583.400
  C       64.061    -480.877     584.457
  N       63.473    -479.647     584.570
  O       64.052    -482.830     589.200
  O       65.396    -481.323     590.787
  H       61.513    -477.353     585.750
  H       64.350    -483.502     589.841
  H       60.107    -478.026     582.097
  H       64.775    -481.248     585.178
  H       63.772    -477.661     585.025
  H       62.584    -479.598     587.120
  H       63.100    -477.821     588.716
  H       65.618    -477.393     587.580
  H       66.414    -479.457     588.500
  H       61.004    -482.028     580.250
  H       62.331    -482.772     581.159
  H       65.189    -478.879     589.598
  P       63.660    -475.227     588.427
  C       61.145    -474.818     588.777
  O       62.372    -474.276     588.263
  O       64.784    -474.293     587.714
  O       64.023    -475.693     589.786
  H       64.539    -474.089     586.798
  H       60.369    -474.067     588.690
  H       61.268    -475.102     589.825
  H       60.854    -475.694     588.172
  H       61.904    -479.926     591.858
  H       63.485    -479.294     591.464
  H       63.338    -480.808     592.325

 3  4  5  6  7  8  9  10  11  12  22  25  29  30  31  32 0
 6-311+G(2d,p)
 ****
 33  36  37 0
 6-311+G(2d,p)
 ****
 1  2  13  14  15  16  17  18  19  20  21  23  24  26 0
 3-21G
 ****
 27  28  34  35  38  39  40  41  42  43  44  45  46  47  48 0
 3-21G
 ****


