%nproc=1
%NoSave
%Mem=1900MB
#P OB98/GEN NMR

erre ene a

0 1
  C      482.092     -83.052     -26.138
  O      481.990     -81.744     -25.607
  H      481.132     -83.331     -26.575
  H      482.332     -83.754     -25.341
  H      482.857     -83.100     -26.920
  P      483.325     -80.974     -25.176
  C      482.829     -78.991     -26.758
  O      483.041     -79.412     -25.414
  C      482.197     -77.599     -26.802
  O      480.799     -77.705     -26.389
  C      482.870     -76.572     -25.874
  O      482.737     -75.291     -26.479
  C      482.005     -76.669     -24.631
  O      482.184     -75.552     -23.786
  C      480.613     -76.826     -25.256
  N      479.621     -77.338     -24.310
  C      479.149     -76.455     -23.351
  O      479.559     -75.284     -23.251
  N      478.237     -76.952     -22.466
  C      477.793     -78.245     -22.412
  O      476.999     -78.637     -21.578
  C      478.359     -79.158     -23.435
  C      479.235     -78.662     -24.333
  O      484.593     -81.478     -25.780
  O      483.344     -81.084     -23.573
  H      483.137     -75.439     -23.566
  H      484.261     -81.088     -23.252
  H      477.892     -76.318     -21.767
  H      478.037     -80.190     -23.415
  H      479.667     -79.320     -25.080
  H      480.250     -75.865     -25.633
  H      482.266     -77.558     -24.037
  H      483.925     -76.799     -25.678
  H      482.198     -77.249     -27.834
  H      482.161     -79.724     -27.228
  H      483.785     -78.984     -27.295
  P      483.531     -73.994     -25.949
  C      484.897     -73.421     -28.070
  O      483.835     -73.032     -27.198
  O      484.748     -74.319     -25.126
  O      482.459     -73.173     -25.089
  H      482.924     -72.660     -24.398
  H      484.996     -72.701     -28.855
  H      484.679     -74.380     -28.491
  H      485.812     -73.473     -27.517

 6  7  8  9  10  11  12  13  14  15  16  26  31  32  33  34  35 0
 6-311+G(2d,p)
 ****
 36  37 0
 6-311+G(2d,p)
 ****
 1  2  3  4  5  17  18  19  20  21  22  23  24  25 0
 3-21G
 ****
 27  28  29  30  38  39  40  41  42  43  44  45 0
 3-21G
 ****


