%nproc=1
%NoSave
%Mem=1900MB
#P OB98/GEN NMR

erre ene a

0 1
  C     -335.056     312.761     130.425
  O     -334.772     311.447     129.940
  P     -335.214     311.050     128.454
  C     -333.099     309.740     127.766
  O     -334.491     309.676     128.043
  C     -332.592     308.419     127.163
  O     -332.604     307.382     128.184
  C     -333.447     307.931     125.985
  O     -332.673     307.612     124.828
  C     -334.256     306.790     126.578
  O     -334.709     305.867     125.601
  C     -333.325     306.246     127.667
  N     -334.062     305.535     128.715
  C     -333.656     304.235     128.994
  O     -332.774     303.656     128.363
  N     -334.336     303.592     129.992
  C     -335.414     304.083     130.666
  O     -336.025     303.447     131.521
  C     -335.847     305.440     130.284
  C     -335.160     306.088     129.340
  O     -335.126     312.136     127.435
  O     -336.741     310.583     128.648
  H     -335.429     305.327     125.996
  H     -337.250     310.898     127.878
  H     -334.040     302.656     130.219
  H     -336.712     305.850     130.780
  H     -335.461     307.082     129.027
  H     -332.602     305.540     127.245
  H     -335.149     307.216     127.057
  H     -334.129     308.716     125.634
  H     -331.559     308.581     126.848
  H     -332.552     309.940     128.688
  H     -332.901     310.590     127.102
  P     -332.421     308.604     123.602
  C     -329.838     308.366     123.609
  O     -331.045     308.190     122.893
  O     -332.556     310.060     123.904
  O     -333.531     308.157     122.538
  H     -333.905     308.950     122.113
  H     -329.011     308.398     122.898
  H     -329.689     307.516     124.287
  H     -329.846     309.295     124.185
  H     -334.695     312.857     131.428
  H     -336.113     312.926     130.409
  H     -334.572     313.484     129.802

 3  4  5  6  7  8  9  10  11  12  13  23  28  29  30  31  32 0
 6-311+G(2d,p)
 ****
 33  34 0
 6-311+G(2d,p)
 ****
 1  2  14  15  16  17  18  19  20  21  22  24  25  26  27 0
 3-21G
 ****
 35  36  37  38  39  40  41  42  43  44  45 0
 3-21G
 ****


