%nproc=1
%NoSave
%Mem=1900MB
#P OB98/GEN NMR

erre ene a

0 1
  C       76.132     178.981    -201.019
  O       76.870     179.424    -202.143
  H       75.110     179.353    -201.105
  H       76.575     179.382    -200.106
  H       76.102     177.890    -200.974
  P       78.314     178.787    -202.421
  C       77.564     177.787    -204.674
  O       78.073     177.521    -203.381
  C       76.989     176.509    -205.310
  O       76.193     175.809    -204.314
  C       76.079     176.774    -206.522
  O       76.209     175.653    -207.405
  C       74.705     176.786    -205.878
  O       73.679     176.611    -206.831
  C       74.867     175.661    -204.847
  N       73.846     175.712    -203.798
  C       72.612     175.141    -204.105
  O       72.352     174.652    -205.203
  N       71.649     175.207    -203.125
  C       71.798     175.823    -201.916
  O       70.899     175.875    -201.087
  C       73.104     176.444    -201.663
  C       74.058     176.356    -202.601
  O       79.146     178.506    -201.208
  O       79.023     179.835    -203.402
  H       72.872     176.268    -206.398
  H       79.999     179.820    -203.260
  H       70.762     174.799    -203.326
  H       73.250     176.950    -200.711
  H       75.032     176.804    -202.442
  H       74.803     174.685    -205.331
  H       74.517     177.744    -205.372
  H       76.309     177.701    -207.043
  H       77.816     175.855    -205.579
  H       78.384     178.168    -205.290
  H       76.779     178.552    -204.618
  P       77.457     175.487    -208.400
  C       78.567     173.674    -206.953
  O       78.714     174.955    -207.555
  O       77.748     176.697    -209.231
  O       77.075     174.238    -209.328
  H       77.518     174.325    -210.191
  H       79.461     173.426    -206.420
  H       78.389     172.941    -207.712
  H       77.740     173.692    -206.274

 6  7  8  9  10  11  12  13  14  15  16  26  31  32  33  34  35 0
 6-311+G(2d,p)
 ****
 36  37 0
 6-311+G(2d,p)
 ****
 1  2  3  4  5  17  18  19  20  21  22  23  24  25 0
 3-21G
 ****
 27  28  29  30  38  39  40  41  42  43  44  45 0
 3-21G
 ****


