%nproc=1
%NoSave
%Mem=1900MB
#P OB98/GEN NMR

erre ene a

0 1
  C      -94.073     209.983     265.256
  O      -92.965     210.147     264.390
  P      -91.686     210.923     264.984
  C      -91.499     213.189     266.268
  O      -92.174     212.422     265.283
  C      -91.364     214.634     265.785
  O      -92.595     215.080     265.180
  C      -91.048     215.635     266.891
  O      -89.661     215.631     267.182
  C      -91.544     216.936     266.272
  O      -90.567     217.476     265.359
  C      -92.800     216.477     265.521
  N      -97.595     218.065     265.321
  C      -96.569     218.220     264.407
  N      -96.882     218.851     263.255
  N      -95.351     217.791     264.605
  C      -95.183     217.195     265.806
  C      -96.115     216.996     266.799
  C      -97.470     217.428     266.547
  O      -98.436     217.229     267.279
  N      -95.564     216.370     267.889
  C      -94.309     216.161     267.541
  N      -94.034     216.625     266.278
  O      -90.732     211.070     263.711
  O      -91.017     210.249     266.139
  H      -89.823     217.843     265.861
  H      -90.041     210.377     263.717
  H      -98.519     218.401     265.110
  H      -93.572     215.668     268.151
  H      -92.941     217.022     264.575
  H      -91.726     217.709     267.025
  H      -97.791     219.229     263.044
  H      -91.634     215.411     267.788
  H      -96.143     218.976     262.572
  H      -90.587     214.661     265.011
  H      -90.503     212.771     266.434
  H      -92.062     213.146     267.207
  P      -89.233     215.533     268.723
  C      -89.815     216.909     270.848
  O      -89.712     216.886     269.435
  O      -87.636     215.672     268.669
  O      -89.643     214.270     269.404
  H      -87.234     215.106     269.356
  H      -89.622     217.931     271.192
  H      -89.094     216.236     271.318
  H      -90.824     216.618     271.137
  H      -94.851     209.456     264.744
  H      -94.433     210.944     265.560
  H      -93.772     209.426     266.119

 3  4  5  6  7  8  9  10  11  12  23  26  30  31 0
 6-311+G(2d,p)
 ****
 33  35  36  37  38 0
 6-311+G(2d,p)
 ****
 1  2  13  14  15  16  17  18  19  20  21  22  24  25 0
 3-21G
 ****
 27  28  29  32  34  39  40  41  42  43  44  45  46  47  48  49 0
 3-21G
 ****


