%nproc=1
%NoSave
%Mem=1900MB
#P OB98/GEN NMR

erre ene a

0 1
  C      592.493    -270.690     971.733
  O      591.517    -270.738     972.773
  P      591.970    -271.301     974.219
  C      592.765    -268.956     974.931
  O      593.111    -270.325     974.789
  C      593.480    -268.341     976.154
  O      593.061    -268.970     977.376
  C      594.978    -268.496     976.115
  O      595.567    -267.602     975.175
  C      595.349    -268.249     977.574
  O      595.412    -266.834     977.845
  C      594.146    -268.866     978.318
  N      594.454    -270.161     978.923
  C      595.325    -270.120     980.020
  O      595.802    -269.058     980.402
  N      595.622    -271.310     980.657
  C      595.118    -272.423     980.227
  N      595.460    -273.555     980.883
  C      594.219    -272.501     979.055
  C      593.935    -271.335     978.463
  O      592.272    -272.759     974.280
  O      590.708    -270.922     975.144
  H      594.517    -266.486     977.678
  H      590.649    -271.588     975.860
  H      593.806    -273.443     978.734
  H      593.279    -271.308     977.598
  H      593.806    -268.192     979.118
  H      596.322    -268.671     977.825
  H      595.245    -269.532     975.847
  H      593.213    -267.283     976.196
  H      596.082    -273.472     981.672
  H      591.689    -268.860     975.040
  H      595.070    -274.472     980.659
  H      593.043    -268.430     974.019
  P      596.338    -268.237     973.913
  C      595.346    -266.725     972.051
  O      595.419    -268.026     972.629
  O      596.235    -269.823     974.199
  O      597.754    -267.806     973.771
  H      597.036    -270.255     973.864
  H      594.949    -266.829     971.024
  H      596.332    -266.261     972.003
  H      594.673    -266.098     972.633
  H      592.047    -270.298     970.843
  H      592.860    -271.677     971.543
  H      593.304    -270.060     972.033

 3  4  5  6  7  8  9  10  11  12  13  23  27  28  29  30  32 0
 6-311+G(2d,p)
 ****
 34  35 0
 6-311+G(2d,p)
 ****
 1  2  14  15  16  17  18  19  20  21  22  24  25  26 0
 3-21G
 ****
 31  33  36  37  38  39  40  41  42  43  44  45  46 0
 3-21G
 ****


