%nproc=1
%NoSave
%Mem=1900MB
#P OB98/GEN NMR

erre ene a

0 1
  C      -18.959      22.131    -196.260
  O      -18.543      21.108    -197.147
  H      -19.044      21.710    -195.254
  H      -19.932      22.520    -196.568
  H      -18.221      22.941    -196.243
  P      -18.316      21.538    -198.676
  C      -16.061      22.740    -198.139
  O      -16.728      21.708    -198.856
  C      -14.554      22.465    -198.098
  O      -14.327      21.200    -197.400
  C      -13.915      22.327    -199.493
  O      -12.545      22.773    -199.409
  C      -13.938      20.820    -199.697
  O      -13.065      20.447    -200.738
  C      -13.565      20.362    -198.289
  N      -12.498      15.591    -199.760
  C      -11.981      16.788    -200.128
  N      -12.315      18.016    -199.682
  C      -13.271      17.933    -198.738
  C      -13.896      16.790    -198.264
  C      -13.477      15.570    -198.819
  N      -14.015      14.352    -198.468
  N      -14.852      17.116    -197.315
  C      -14.798      18.430    -197.217
  N      -13.857      18.966    -198.055
  O      -18.865      23.041    -198.720
  O      -18.972      20.667    -199.696
  H      -13.122      19.488    -200.917
  H      -19.808      23.041    -198.987
  H      -11.195      16.754    -200.881
  H      -15.413      19.046    -196.568
  H      -12.497      20.517    -198.071
  H      -14.941      20.477    -199.970
  H      -14.436      22.893    -200.268
  H      -14.057      23.246    -197.506
  H      -16.463      22.775    -197.121
  H      -16.241      23.700    -198.633
  H      -13.680      13.529    -198.940
  H      -14.766      14.325    -197.799
  P      -12.147      24.201    -200.035
  C      -12.419      25.779    -197.975
  O      -11.538      25.158    -198.902
  O      -13.586      24.859    -200.301
  O      -11.360      24.148    -201.309
  H      -13.606      25.257    -201.193
  H      -11.854      26.379    -197.293
  H      -12.953      25.027    -197.432
  H      -13.114      26.398    -198.503

 6  7  8  9  10  11  12  13  14  15  25  28  32  33  34  35 0
 6-311+G(2d,p)
 ****
 36  37  40 0
 6-311+G(2d,p)
 ****
 1  2  3  4  5  16  17  18  19  20  21  22  23  24 0
 3-21G
 ****
 26  27  29  30  31  38  39 41  42  43  44  45  46  47  48 0
 3-21G
 ****


