%nproc=1
%NoSave
%Mem=1900MB
#P OB98/GEN NMR

erre ene a

0 1
  C     -298.045    -815.201    1015.653
  O     -299.126    -815.833    1014.993
  P     -300.636    -815.406    1015.325
  C     -300.309    -813.686    1013.444
  O     -300.833    -813.921    1014.747
  C     -301.168    -812.651    1012.713
  O     -302.420    -813.237    1012.274
  C     -301.595    -811.466    1013.578
  O     -300.579    -810.601    1014.027
  C     -302.707    -810.875    1012.741
  O     -302.200    -810.061    1011.697
  C     -303.373    -812.154    1012.150
  N     -304.643    -812.464    1012.800
  C     -305.770    -812.301    1012.012
  O     -305.748    -811.942    1010.846
  N     -306.978    -812.576    1012.632
  C     -307.136    -812.918    1013.946
  O     -308.236    -813.098    1014.447
  C     -305.900    -813.057    1014.727
  C     -304.716    -812.823    1014.140
  O     -301.055    -815.588    1016.745
  O     -301.488    -816.282    1014.289
  H     -302.950    -809.795    1011.130
  H     -301.288    -816.120    1013.347
  H     -307.810    -812.450    1012.096
  H     -306.001    -813.341    1015.769
  H     -303.804    -812.905    1014.686
  H     -303.552    -812.023    1011.070
  H     -303.374    -810.255    1013.337
  H     -302.062    -811.869    1014.502
  H     -300.633    -812.321    1011.823
  H     -300.306    -814.629    1012.881
  H     -299.270    -813.344    1013.532
  P     -300.699    -809.721    1015.366
  C     -299.419    -811.170    1017.091
  O     -300.666    -810.715    1016.628
  O     -301.733    -808.632    1015.366
  O     -299.237    -809.044    1015.444
  H     -299.313    -808.183    1015.861
  H     -299.594    -811.877    1017.921
  H     -298.820    -810.328    1017.463
  H     -298.888    -811.698    1016.289
  H     -297.122    -815.615    1015.303
  H     -298.130    -815.359    1016.708
  H     -298.066    -814.151    1015.447

 3  4  5  6  7  8  9  10  11  12  13  23  28  29  30  31  32 0
 6-311+G(2d,p)
 ****
 33  34 0
 6-311+G(2d,p)
 ****
 1  2  14  15  16  17  18  19  20  21  22  24  25  26  27 0
 3-21G
 ****
 35  36  37  38  39  40  41  42  43  44  45 0
 3-21G
 ****


