%nproc=1
%NoSave
%Mem=1900MB
#P OB98/GEN NMR

erre ene a

0 1
  C      384.685     202.592     189.340
  O      385.028     202.119     188.030
  P      386.188     202.762     187.129
  C      387.822     200.801     187.579
  O      387.601     202.206     187.659
  C      389.276     200.502     187.201
  O      390.158     200.839     188.298
  C      389.579     199.033     186.908
  O      389.060     198.611     185.664
  C      391.105     199.031     186.992
  O      391.697     199.433     185.747
  C      391.384     200.089     188.079
  N      391.875     199.515     189.323
  C      393.229     199.165     189.360
  O      393.930     199.272     188.349
  N      393.747     198.690     190.537
  C      392.968     198.486     191.552
  N      393.548     198.030     192.699
  C      391.508     198.711     191.506
  C      391.035     199.220     190.376
  O      386.127     204.253     187.038
  O      386.035     202.090     185.683
  H      386.387     202.692     185.001
  H      392.656     199.531     185.909
  H      390.892     198.485     192.365
  H      389.978     199.435     190.267
  H      392.106     200.828     187.709
  H      391.503     198.035     187.229
  H      389.172     198.413     187.719
  H      389.536     201.124     186.334
  H      394.547     197.897     192.703
  H      387.159     200.388     186.812
  H      393.032     197.854     193.549
  H      387.563     200.341     188.543
  P      388.361     197.167     185.617
  C      385.897     197.983     185.768
  O      386.958     197.281     186.382
  O      389.266     196.281     186.603
  O      388.283     196.557     184.255
  H      389.365     195.383     186.233
  H      384.954     197.576     186.129
  H      385.932     197.892     184.678
  H      385.958     199.039     186.040
  H      383.884     202.002     189.734
  H      384.379     203.616     189.281
  H      385.537     202.511     189.983

 3  4  5  6  7  8  9  10  11  12  13  24  27  28  29  30  32 0
 6-311+G(2d,p)
 ****
 34  35 0
 6-311+G(2d,p)
 ****
 1  2  14  15  16  17  18  19  20  21  22  23  25  26 0
 3-21G
 ****
 31  33  36  37  38  39  40  41  42  43  44  45  46 0
 3-21G
 ****


