%nproc=1
%NoSave
%Mem=1900MB
#P OB98/GEN NMR

erre ene a

0 1
  C      -56.787     167.180      -6.403
  O      -57.914     166.676      -5.725
  P      -58.593     167.397      -4.476
  C      -60.469     168.807      -5.630
  O      -59.210     168.793      -4.967
  C      -61.147     170.178      -5.494
  O      -62.268     170.230      -6.413
  C      -61.714     170.391      -4.082
  O      -61.506     171.698      -3.563
  C      -63.155     169.917      -4.220
  O      -64.016     170.413      -3.208
  C      -63.485     170.343      -5.647
  N      -68.470     169.475      -6.098
  C      -67.824     170.537      -5.497
  N      -68.600     171.370      -4.772
  N      -66.534     170.733      -5.574
  C      -65.875     169.755      -6.236
  C      -66.408     168.658      -6.874
  C      -67.837     168.471      -6.810
  O      -68.440     167.484      -7.231
  N      -65.432     167.843      -7.384
  C      -64.306     168.426      -7.027
  N      -64.525     169.573      -6.299
  O      -57.827     167.380      -3.194
  O      -59.920     166.501      -4.264
  H      -64.898     170.023      -3.354
  H      -60.100     166.478      -3.304
  H      -69.460     169.333      -5.935
  H      -63.312     168.050      -7.239
  H      -63.811     171.384      -5.688
  H      -63.152     168.825      -4.129
  H      -69.568     171.162      -4.575
  H      -61.198     169.748      -3.361
  H      -68.127     171.998      -4.128
  H      -60.438     170.961      -5.786
  H      -61.079     168.036      -5.147
  H      -60.353     168.534      -6.680
  P      -61.420     172.169      -2.041
  C      -58.858     172.068      -2.049
  O      -60.046     171.633      -1.417
  O      -62.521     171.299      -1.274
  O      -61.671     173.625      -1.824
  H      -62.970     171.854      -0.609
  H      -58.032     171.432      -1.717
  H      -58.647     173.100      -1.763
  H      -58.947     171.996      -3.137
  H      -56.525     166.517      -7.201
  H      -55.966     167.259      -5.721
  H      -57.014     168.146      -6.802

 3  4  5  6  7  8  9  10  11  12  23  26  30  31 0
 6-311+G(2d,p)
 ****
 33  35  36  37  38 0
 6-311+G(2d,p)
 ****
 1  2  13  14  15  16  17  18  19  20  21  22  24  25 0
 3-21G
 ****
 27  28  29  32  34  39  40  41  42  43  44  45  46  47  48  49 0
 3-21G
 ****


