%nproc=1
%NoSave
%Mem=1900MB
#P OB98/GEN NMR

erre ene a

0 1
  C      -27.617     258.316      30.338
  O      -28.642     259.151      30.838
  H      -27.150     258.772      29.462
  H      -26.856     258.192      31.116
  H      -28.021     257.332      30.079
  P      -29.871     259.459      29.852
  C      -29.940     262.029      29.470
  O      -29.450     260.770      29.025
  C      -28.923     262.670      30.412
  O      -27.639     262.785      29.758
  C      -29.285     264.085      30.855
  O      -30.218     264.088      31.922
  C      -27.929     264.589      31.311
  O      -27.612     264.041      32.605
  C      -27.000     263.995      30.244
  N      -24.132     267.871      28.515
  C      -24.140     267.212      29.694
  N      -24.937     266.191      30.078
  C      -25.797     265.868      29.096
  C      -25.909     266.458      27.852
  C      -25.021     267.505      27.559
  N      -25.018     268.191      26.368
  N      -26.938     265.874      27.128
  C      -27.407     264.933      27.916
  N      -26.760     264.895      29.122
  O      -31.015     259.998      30.834
  O      -30.330     258.314      29.009
  H      -28.097     264.580      33.261
  H      -31.891     259.911      30.406
  H      -23.410     267.549      30.427
  H      -28.215     264.253      27.661
  H      -26.019     263.712      30.646
  H      -27.882     265.676      31.404
  H      -29.632     264.698      30.017
  H      -28.798     262.009      31.278
  H      -30.881     261.880      30.007
  H      -24.468     269.042      26.332
  H      -25.772     268.025      25.715
  H      -30.115     262.677      28.602
  P      -31.060     265.436      32.162
  C      -30.514     266.846      34.279
  O      -30.095     266.411      32.989
  O      -32.157     264.995      33.239
  O      -31.671     266.018      30.927
  H      -32.956     265.551      33.170
  H      -29.767     267.486      34.699
  H      -30.654     265.996      34.914
  H      -31.436     267.382      34.193

 6  7  8  9  10  11  12  13  14  15  25  28  32  33  34  35 0
 6-311+G(2d,p)
 ****
 36  39  40 0
 6-311+G(2d,p)
 ****
 1  2  3  4  5  16  17  18  19  20  21  22  23  24 0
 3-21G
 ****
 26  27  29  30  31  37  38  41  42  43  44  45  46  47 0
 3-21G
 ****
 48 0
 3-21G
 ****


