%nproc=1
%NoSave
%Mem=1900MB
#P OB98/GEN NMR

erre ene a

0 1
  C      197.839    -930.621     288.147
  O      198.444    -930.475     289.437
  P      197.482    -930.178     290.693
  C      197.511    -927.573     290.740
  O      196.775    -928.762     290.450
  C      196.650    -926.335     290.456
  O      196.228    -926.287     289.078
  C      195.372    -926.269     291.284
  O      195.619    -925.738     292.580
  C      194.547    -925.288     290.478
  O      194.963    -923.949     290.751
  C      194.915    -925.680     289.029
  N      190.218    -926.194     287.220
  C      190.855    -925.086     287.751
  N      190.126    -923.938     287.802
  N      192.083    -925.097     288.193
  C      192.687    -926.295     288.061
  C      192.165    -927.463     287.563
  C      190.804    -927.444     287.085
  O      190.176    -928.397     286.618
  N      193.082    -928.486     287.603
  C      194.172    -927.935     288.115
  N      193.966    -926.606     288.430
  O      198.529    -929.865     291.864
  O      196.576    -931.311     291.042
  H      194.479    -923.356     290.139
  H      198.134    -930.089     292.726
  H      189.272    -926.138     286.894
  H      195.111    -928.438     288.279
  H      194.977    -924.803     288.378
  H      193.483    -925.349     290.714
  H      189.197    -923.847     287.423
  H      194.878    -927.255     291.329
  H      190.590    -923.110     288.153
  H      197.268    -925.439     290.664
  H      198.432    -927.540     290.144
  H      197.837    -927.611     291.784
  P      195.399    -926.710     293.847
  C      193.241    -925.559     294.766
  O      193.826    -926.691     294.137
  O      196.023    -925.865     295.054
  O      196.030    -928.055     293.730
  H      196.386    -926.466     295.727
  H      192.163    -925.657     294.741
  H      193.539    -924.638     294.253
  H      193.568    -925.511     295.818
  H      198.597    -930.813     287.417
  H      197.320    -929.721     287.893
  H      197.148    -931.438     288.167

 3  4  5  6  7  8  9  10  11  12  23  26  30  31 0
 6-311+G(2d,p)
 ****
 33  35  36  37  38 0
 6-311+G(2d,p)
 ****
 1  2  13  14  15  16  17  18  19  20  21  22  24  25 0
 3-21G
 ****
 27  28  29  32  34  39  40  41  42  43  44  45  46  47  48  49 0
 3-21G
 ****


