%nproc=1
%NoSave
%Mem=1900MB
#P OB98/GEN NMR

erre ene a

0 1
  C     -304.740     -35.866     -30.141
  O     -304.927     -37.266     -30.044
  H     -304.404     -35.630     -31.154
  H     -303.986     -35.522     -29.430
  H     -305.687     -35.350     -29.959
  P     -305.151     -37.898     -28.585
  C     -302.715     -38.747     -28.540
  O     -303.693     -37.929     -27.906
  C     -301.823     -39.441     -27.516
  O     -301.101     -38.472     -26.725
  C     -302.578     -40.287     -26.501
  O     -303.215     -41.424     -27.035
  C     -301.541     -40.462     -25.403
  O     -300.622     -41.516     -25.682
  C     -300.810     -39.096     -25.452
  N     -301.172     -38.233     -24.330
  C     -300.146     -37.912     -23.454
  O     -298.995     -38.334     -23.566
  N     -300.497     -37.108     -22.400
  C     -301.752     -36.642     -22.126
  O     -301.999     -35.942     -21.155
  C     -302.803     -37.049     -23.075
  C     -302.474     -37.810     -24.119
  O     -305.865     -39.217     -28.552
  O     -305.904     -36.740     -27.777
  H     -299.965     -41.518     -24.961
  H     -306.314     -37.092     -26.947
  H     -299.760     -36.848     -21.759
  H     -303.811     -36.708     -22.880
  H     -303.233     -38.120     -24.835
  H     -299.722     -39.245     -25.422
  H     -301.998     -40.679     -24.432
  H     -303.380     -39.670     -26.071
  H     -301.080     -40.043     -28.058
  H     -302.098     -38.099     -29.176
  H     -303.215     -39.490     -29.171
  P     -304.721     -41.832     -26.719
  C     -304.098     -43.550     -24.843
  O     -304.799     -42.362     -25.204
  O     -305.447     -42.606     -27.767
  O     -305.435     -40.385     -26.598
  H     -306.346     -40.486     -26.936
  H     -304.257     -43.757     -23.805
  H     -303.052     -43.416     -25.023
  H     -304.459     -44.369     -25.429

 6  7  8  9  10  11  12  13  14  15  16  26  31  32  33  34  35 0
 6-311+G(2d,p)
 ****
 36  37 0
 6-311+G(2d,p)
 ****
 1  2  3  4  5  17  18  19  20  21  22  23  24  25 0
 3-21G
 ****
 27  28  29  30  38  39  40  41  42  43  44  45 0
 3-21G
 ****


