%nproc=1
%NoSave
%Mem=1900MB
#P OB98/GEN NMR

erre ene a

0 1
  C      262.024     193.484     -68.268
  O      260.677     193.599     -67.795
  P      259.886     192.215     -67.581
  C      258.495     192.983     -65.529
  O      258.476     192.558     -66.886
  C      257.108     192.877     -64.888
  O      256.196     193.868     -65.442
  C      256.442     191.505     -65.085
  O      255.679     191.240     -63.896
  C      255.492     191.753     -66.241
  O      254.475     190.757     -66.313
  C      255.015     193.160     -65.891
  N      250.599     194.122     -68.144
  C      250.892     193.286     -67.090
  N      249.849     192.652     -66.509
  N      252.100     193.088     -66.632
  C      253.044     193.824     -67.281
  C      252.880     194.703     -68.332
  C      251.531     194.877     -68.842
  O      251.218     195.610     -69.771
  N      254.068     195.281     -68.694
  C      254.958     194.695     -67.906
  N      254.387     193.855     -66.991
  O      260.723     191.494     -66.419
  O      259.800     191.373     -68.806
  H      254.095     190.672     -65.413
  H      261.313     190.820     -66.797
  H      249.653     194.222     -68.465
  H      256.025     194.871     -67.936
  H      254.283     193.158     -65.068
  H      256.042     191.754     -67.193
  H      248.891     192.789     -66.780
  H      257.142     190.684     -65.278
  H      250.036     192.060     -65.705
  H      257.207     193.087     -63.816
  H      258.832     194.022     -65.470
  H      259.234     192.392     -64.979
  P      256.416     190.499     -62.687
  C      255.510     192.219     -60.966
  O      255.607     190.859     -61.349
  O      257.777     191.336     -62.530
  O      256.697     189.051     -62.911
  H      258.513     190.726     -62.323
  H      254.606     192.347     -60.374
  H      255.463     192.878     -61.834
  H      256.381     192.486     -60.356
  H      262.450     194.460     -68.373
  H      262.028     192.989     -69.217
  H      262.601     192.917     -67.568

 3  4  5  6  7  8  9  10  11  12  23  26  30  31 0
 6-311+G(2d,p)
 ****
 33  35  36  37  38 0
 6-311+G(2d,p)
 ****
 1  2  13  14  15  16  17  18  19  20  21  22  24  25 0
 3-21G
 ****
 27  28  29  32  34  39  40  41  42  43  44  45  46  47  48  49 0
 3-21G
 ****


