%nproc=1
%NoSave
%Mem=1900MB
#P OB98/GEN NMR

erre ene a

0 1
  C      -48.663    -904.373     191.318
  O      -48.007    -903.155     191.026
  P      -47.781    -902.802     189.471
  C      -46.397    -903.886     187.533
  O      -46.733    -903.896     188.910
  C      -44.914    -904.215     187.369
  O      -44.591    -905.462     188.027
  C      -44.451    -904.364     185.932
  O      -44.209    -903.092     185.354
  C      -43.206    -905.213     186.089
  O      -42.067    -904.400     186.467
  C      -43.611    -906.167     187.225
  N      -42.773    -911.149     186.964
  C      -41.925    -910.128     187.355
  N      -40.696    -910.498     187.780
  N      -42.256    -908.870     187.331
  C      -43.520    -908.653     186.876
  C      -44.443    -909.572     186.447
  C      -44.086    -910.973     186.524
  O      -44.826    -911.919     186.283
  N      -45.609    -908.967     186.033
  C      -45.394    -907.684     186.239
  N      -44.147    -907.441     186.770
  O      -46.926    -901.446     189.522
  O      -49.034    -902.676     188.659
  H      -41.879    -903.774     185.762
  H      -47.517    -900.678     189.390
  H      -42.466    -912.111     187.008
  H      -46.101    -906.913     186.040
  H      -42.757    -906.399     187.890
  H      -42.918    -905.719     185.151
  H      -40.366    -911.448     187.792
  H      -45.208    -904.917     185.338
  H      -40.055    -909.757     188.057
  H      -44.337    -903.433     187.884
  H      -46.593    -902.894     187.116
  H      -47.020    -904.625     187.009
  P      -44.336    -902.967     183.751
  C      -42.921    -903.874     181.768
  O      -42.944    -903.473     183.126
  O      -44.307    -901.373     183.500
  O      -45.573    -903.581     183.168
  H      -44.909    -901.155     182.771
  H      -41.924    -903.678     181.363
  H      -43.671    -903.336     181.178
  H      -43.135    -904.954     181.722
  H      -48.749    -904.486     192.378
  H      -48.097    -905.188     190.917
  H      -49.639    -904.367     190.879

 3  4  5  6  7  8  9  10  11  12  23  26  30  31 0
 6-311+G(2d,p)
 ****
 33  35  36  37  38 0
 6-311+G(2d,p)
 ****
 1  2  13  14  15  16  17  18  19  20  21  22  24  25 0
 3-21G
 ****
 27  28  29  32  34  39  40  41  42  43  44  45  46  47  48  49 0
 3-21G
 ****


