%nproc=1
%NoSave
%Mem=1900MB
#P OB98/GEN NMR

erre ene a

0 1
  C      314.703      53.640    -187.935
  O      315.944      52.964    -187.956
  H      314.387      53.761    -186.891
  H      313.948      53.051    -188.461
  H      314.787      54.630    -188.390
  P      316.763      52.898    -189.333
  C      317.375      50.389    -189.334
  O      317.843      51.720    -189.162
  C      318.122      49.428    -188.400
  O      319.424      49.126    -188.992
  C      318.382      50.003    -186.987
  O      318.357      48.897    -186.069
  C      319.786      50.544    -187.152
  O      320.385      50.842    -185.910
  C      320.415      49.420    -187.980
  N      321.697      49.782    -188.582
  C      322.841      49.537    -187.829
  O      322.834      49.021    -186.714
  N      324.025      49.921    -188.413
  C      324.157      50.515    -189.633
  O      325.246      50.823    -190.117
  C      322.912      50.774    -190.365
  C      321.750      50.393    -189.812
  O      317.316      54.192    -189.824
  O      315.709      52.267    -190.370
  H      315.296      52.989    -190.884
  H      321.277      51.234    -186.051
  H      324.868      49.757    -187.884
  H      322.981      51.259    -191.329
  H      320.807      50.573    -190.325
  H      320.540      48.516    -187.374
  H      319.771      51.483    -187.719
  H      317.639      50.746    -186.687
  H      317.568      48.485    -188.344
  H      317.543      50.094    -190.375
  H      316.298      50.356    -189.120
  P      317.168      48.650    -185.022
  C      318.429      49.040    -182.806
  O      317.781      48.095    -183.643
  O      316.059      47.799    -185.559
  O      316.617      50.104    -184.641
  H      315.657      50.062    -184.510
  H      318.790      48.549    -181.927
  H      317.735      49.805    -182.527
  H      319.251      49.479    -183.333

 6  7  8  9  10  11  12  13  14  15  16  27  31  32  33  34  35 0
 6-311+G(2d,p)
 ****
 36  37 0
 6-311+G(2d,p)
 ****
 1  2  3  4  5  17  18  19  20  21  22  23  24  25 0
 3-21G
 ****
 26  28  29  30  38  39  40  41  42  43  44  45 0
 3-21G
 ****


