%nproc=1
%NoSave
%Mem=1900MB
#P OB98/GEN NMR

erre ene a

0 1
  C     -273.927     499.438    -138.343
  O     -275.263     499.032    -138.128
  H     -273.541     499.876    -137.420
  H     -273.874     500.192    -139.134
  H     -273.306     498.578    -138.608
  P     -276.087     498.428    -139.361
  C     -277.679     500.318    -140.129
  O     -277.519     499.144    -139.340
  C     -279.040     500.962    -139.871
  O     -280.093     500.124    -140.391
  C     -279.361     501.165    -138.393
  O     -278.635     502.260    -137.874
  C     -280.868     501.351    -138.461
  O     -281.204     502.681    -138.893
  C     -281.253     500.312    -139.543
  N     -281.705     499.039    -138.994
  C     -283.064     498.951    -138.673
  O     -283.806     499.919    -138.845
  N     -283.538     497.774    -138.149
  C     -282.744     496.759    -137.998
  N     -283.277     495.623    -137.479
  C     -281.313     496.798    -138.356
  C     -280.863     497.959    -138.832
  O     -276.142     496.933    -139.450
  O     -275.381     499.069    -140.646
  H     -280.829     503.284    -138.223
  H     -274.697     498.467    -140.998
  H     -280.688     495.928    -138.224
  H     -279.820     498.073    -139.119
  H     -282.052     500.707    -140.184
  H     -281.349     501.197    -137.493
  H     -279.151     500.251    -137.829
  H     -279.074     501.913    -140.415
  H     -284.268     495.638    -137.266
  H     -277.599     500.016    -141.179
  H     -282.798     494.735    -137.471
  H     -276.876     501.036    -139.918
  P     -277.797     502.142    -136.510
  C     -279.610     503.110    -134.966
  O     -278.338     503.317    -135.564
  O     -276.316     502.098    -136.678
  O     -278.398     500.832    -135.811
  H     -278.037     500.017    -136.243
  H     -279.862     503.956    -134.362
  H     -279.578     502.232    -134.355
  H     -280.348     502.986    -135.731

 6  7  8  9  10  11  12  13  14  15  16  26  30  31  32  33  35 0
 6-311+G(2d,p)
 ****
 37  38 0
 6-311+G(2d,p)
 ****
 1  2  3  4  5  17  18  19  20  21  22  23  24  25 0
 3-21G
 ****
 27  28  29  34  36  39  40  41  42  43  44  45  46 0
 3-21G
 ****


