%nproc=1
%NoSave
%Mem=1900MB
#P OB98/GEN NMR

erre ene a

0 1
  C     -137.950     -34.753    -133.951
  O     -137.686     -36.126    -134.153
  H     -137.092     -34.174    -134.307
  H     -138.089     -34.554    -132.886
  H     -138.839     -34.444    -134.508
  P     -138.903     -37.140    -133.887
  C     -140.343     -37.767    -131.819
  O     -139.175     -37.120    -132.305
  C     -140.122     -38.251    -130.389
  O     -139.117     -39.291    -130.361
  C     -139.645     -37.170    -129.428
  O     -140.725     -36.389    -128.933
  C     -139.037     -38.023    -128.328
  O     -140.085     -38.578    -127.506
  C     -138.348     -39.132    -129.133
  N     -133.512     -40.392    -128.276
  C     -134.674     -40.904    -127.726
  N     -134.528     -41.883    -126.810
  N     -135.874     -40.487    -128.042
  C     -135.869     -39.494    -128.965
  C     -134.786     -38.909    -129.583
  C     -133.467     -39.383    -129.229
  O     -132.406     -38.984    -129.704
  N     -135.178     -37.943    -130.470
  C     -136.492     -37.927    -130.375
  N     -136.963     -38.846    -129.470
  O     -138.244     -38.582    -134.129
  O     -140.103     -36.942    -134.750
  H     -140.489     -37.835    -127.026
  H     -138.909     -39.168    -134.539
  H     -132.614     -40.742    -127.989
  H     -137.147     -37.277    -130.938
  H     -138.361     -40.096    -128.611
  H     -138.380     -37.454    -127.667
  H     -133.630     -42.215    -126.484
  H     -138.864     -36.544    -129.878
  H     -135.365     -42.297    -126.415
  H     -141.063     -38.696    -130.035
  H     -140.573     -38.625    -132.462
  H     -141.182     -37.063    -131.854
  P     -140.527     -34.792    -128.885
  C     -139.044     -33.207    -127.457
  O     -139.591     -34.513    -127.613
  O     -141.963     -34.268    -128.410
  O     -140.097     -34.170    -130.169
  H     -142.088     -33.338    -128.686
  H     -138.446     -33.174    -126.570
  H     -139.838     -32.495    -127.378
  H     -138.436     -32.971    -128.306

 6  7  8  9  10  11  12  13  14  15  26  29  33  34 0
 6-311+G(2d,p)
 ****
 36  38  39  40  41 0
 6-311+G(2d,p)
 ****
 1  2  3  4  5  16  17  18  19  20  21  22  23  24  25 0
 3-21G
 ****
 27  28  30  31  32  35  37  42  43  44  45  46  47 0
 3-21G
 ****
 48  49 0
 3-21G
 ****


