%nproc=1
%NoSave
%Mem=1900MB
#P OB98/GEN NMR

erre ene a

0 1
  C      674.590     359.567    -494.499
  O      674.303     358.234    -494.906
  H      673.687     360.158    -494.577
  H      675.362     359.999    -495.140
  H      674.930     359.577    -493.454
  P      675.487     357.155    -494.876
  C      675.192     356.750    -497.419
  O      676.078     357.109    -496.360
  C      675.919     356.739    -498.749
  O      676.402     358.066    -499.059
  C      677.134     355.809    -498.789
  O      676.719     354.474    -499.014
  C      677.901     356.404    -499.957
  O      677.288     356.007    -501.200
  C      677.698     357.917    -499.714
  N      681.711     361.021    -499.650
  C      680.953     360.565    -500.715
  N      681.364     360.956    -501.958
  N      679.919     359.776    -500.595
  C      679.680     359.416    -499.318
  C      680.361     359.793    -498.174
  C      681.469     360.700    -498.331
  O      682.155     361.153    -497.396
  N      679.872     359.151    -497.057
  C      678.861     358.433    -497.515
  N      678.717     358.554    -498.883
  O      675.143     355.801    -494.328
  O      676.648     357.877    -494.033
  H      676.343     356.220    -501.118
  H      676.593     357.641    -493.091
  H      682.510     361.615    -499.822
  H      678.212     357.819    -496.906
  H      677.654     358.482    -500.656
  H      678.946     356.087    -499.991
  H      682.290     361.310    -502.119
  H      677.748     355.904    -497.876
  H      680.849     360.594    -502.746
  H      675.195     356.466    -499.530
  H      674.376     357.480    -497.429
  H      674.763     355.754    -497.219
  P      677.744     353.237    -498.799
  C      677.522     352.439    -501.264
  O      678.381     352.983    -500.255
  O      677.141     352.043    -498.163
  O      678.961     353.876    -497.992
  H      678.852     353.845    -497.004
  H      678.071     352.323    -502.175
  H      676.698     353.102    -501.426
  H      677.155     351.486    -500.944

 6  7  8  9  10  11  12  13  14  15  26  29  33  34 0
 6-311+G(2d,p)
 ****
 36  38  39  40  41 0
 6-311+G(2d,p)
 ****
 1  2  3  4  5  16  17  18  19  20  21  22  23  24  25 0
 3-21G
 ****
 27  28  30  31  32  35  37  42  43  44  45  46  47 0
 3-21G
 ****
 48  49 0
 3-21G
 ****


