%nproc=1
%NoSave
%Mem=1900MB
#P OB98/GEN NMR

erre ene a

0 1
  C      211.847    -937.625      77.004
  O      212.080    -938.956      77.449
  P      212.741    -939.359      78.838
  C      215.103    -938.562      78.008
  O      214.108    -938.534      79.007
  C      216.371    -937.824      78.464
  O      216.914    -938.521      79.634
  C      217.478    -937.827      77.382
  O      218.159    -936.582      77.273
  C      218.311    -939.044      77.761
  O      219.621    -939.014      77.221
  C      218.225    -939.032      79.292
  N      221.225    -941.993      82.170
  C      221.468    -940.729      81.670
  N      222.666    -940.174      81.961
  N      220.605    -940.062      80.935
  C      219.481    -940.759      80.659
  C      219.150    -942.024      81.077
  C      220.074    -942.735      81.929
  O      219.910    -943.848      82.406
  N      217.913    -942.394      80.598
  C      217.523    -941.374      79.867
  N      218.437    -940.343      79.890
  O      212.799    -940.822      79.141
  O      211.774    -938.678      79.939
  H      219.540    -938.955      76.248
  H      211.794    -939.268      80.716
  H      221.912    -942.452      82.744
  H      216.575    -941.303      79.328
  H      218.970    -938.372      79.745
  H      217.812    -939.927      77.367
  H      223.416    -940.684      82.414
  H      217.045    -937.984      76.389
  H      222.909    -939.359      81.419
  H      216.108    -936.814      78.760
  H      214.672    -938.048      77.137
  H      215.330    -939.592      77.702
  P      217.966    -935.439      76.164
  C      218.861    -936.444      73.982
  O      217.714    -936.144      74.749
  O      219.418    -934.798      75.992
  O      216.967    -934.397      76.523
  H      219.396    -933.850      76.239
  H      218.560    -936.666      72.961
  H      219.368    -937.313      74.388
  H      219.551    -935.590      73.966
  H      211.392    -937.647      76.036
  H      212.777    -937.099      76.949
  H      211.197    -937.127      77.693

 3  4  5  6  7  8  9  10  11  12  23  26  30  31 0
 6-311+G(2d,p)
 ****
 33  35  36  37  38 0
 6-311+G(2d,p)
 ****
 1  2  13  14  15  16  17  18  19  20  21  22  24  25 0
 3-21G
 ****
 27  28  29  32  34  39  40  41  42  43  44  45  46  47  48  49 0
 3-21G
 ****


