%nproc=1
%NoSave
%Mem=1900MB
#P OB98/GEN NMR

erre ene a

0 1
  C      -57.349    -102.958     -11.615
  O      -57.136    -103.344     -10.272
  H      -56.666    -103.519     -12.255
  H      -57.143    -101.891     -11.732
  H      -58.378    -103.175     -11.920
  P      -58.187    -102.821      -9.180
  C      -56.511    -101.812      -7.468
  O      -57.429    -102.854      -7.764
  C      -55.471    -102.304      -6.460
  O      -54.708    -103.382      -7.073
  C      -54.471    -101.226      -6.021
  O      -54.154    -101.441      -4.641
  C      -53.248    -101.529      -6.866
  O      -52.032    -101.040      -6.316
  C      -53.311    -103.058      -6.928
  N      -52.527    -103.608      -8.032
  C      -51.163    -103.786      -7.820
  O      -50.587    -103.594      -6.751
  N      -50.447    -104.206      -8.913
  C      -50.942    -104.436     -10.162
  O      -50.245    -104.791     -11.104
  C      -52.387    -104.222     -10.324
  C      -53.100    -103.822      -9.270
  O      -59.226    -104.033      -9.073
  O      -58.851    -101.523      -9.499
  H      -59.950    -103.920      -9.717
  H      -51.310    -101.292      -6.928
  H      -49.457    -104.338      -8.777
  H      -52.814    -104.384     -11.305
  H      -54.165    -103.635      -9.361
  H      -52.970    -103.492      -5.981
  H      -53.367    -101.093      -7.864
  H      -54.826    -100.200      -6.163
  H      -55.993    -102.730      -5.595
  H      -57.051    -100.964      -7.037
  H      -56.023    -101.488      -8.393
  P      -54.861    -100.483      -3.563
  C      -52.654     -99.251      -2.872
  O      -53.719    -100.114      -2.501
  O      -55.801    -101.523      -2.797
  O      -55.569     -99.328      -4.187
  H      -55.402    -102.406      -2.712
  H      -51.994     -99.121      -2.040
  H      -53.050     -98.301      -3.165
  H      -52.115     -99.681      -3.691

 6  7  8  9  10  11  12  13  14  15  16  27  31  32  33  34  35 0
 6-311+G(2d,p)
 ****
 36  37 0
 6-311+G(2d,p)
 ****
 1  2  3  4  5  17  18  19  20  21  22  23  24  25 0
 3-21G
 ****
 26  28  29  30  38  39  40  41  42  43  44  45 0
 3-21G
 ****


