%nproc=1
%NoSave
%Mem=1900MB
#P OB98/GEN NMR

erre ene a

0 1
  C      101.743     -77.167      -8.597
  O      100.552     -76.942      -9.316
  P       99.537     -78.103      -9.732
  C      100.415     -78.259     -12.191
  O      100.171     -78.923     -10.956
  C      100.887     -79.253     -13.265
  O      102.138     -79.847     -12.828
  C       99.885     -80.405     -13.445
  O       99.667     -80.780     -14.802
  C      100.424     -81.476     -12.505
  O       99.960     -82.785     -12.804
  C      101.930     -81.260     -12.623
  N      106.141     -83.585     -10.976
  C      105.842     -83.128     -12.243
  N      106.692     -83.501     -13.228
  N      104.783     -82.407     -12.520
  C      103.968     -82.210     -11.455
  C      104.161     -82.613     -10.154
  C      105.353     -83.381      -9.858
  O      105.601     -83.903      -8.770
  N      103.092     -82.297      -9.356
  C      102.233     -81.732     -10.183
  N      102.707     -81.688     -11.475
  O       98.091     -77.727      -9.810
  O       99.706     -79.141      -8.507
  H      100.145     -82.954     -13.748
  H       98.832     -79.559      -8.361
  H      106.933     -84.208     -10.841
  H      101.249     -81.367      -9.909
  H      102.346     -81.790     -13.482
  H      100.071     -81.240     -11.497
  H      107.426     -84.175     -13.070
  H       98.889     -80.104     -13.105
  H      106.365     -83.394     -14.184
  H      101.080     -78.712     -14.198
  H      101.203     -77.519     -11.993
  H       99.525     -77.724     -12.525
  P       98.442     -81.584     -15.436
  C       99.687     -83.828     -15.408
  O       98.544     -83.117     -14.974
  O       98.762     -81.665     -17.000
  O       97.104     -80.962     -15.212
  H       97.936     -81.546     -17.509
  H       99.508     -84.900     -15.269
  H      100.555     -83.534     -14.804
  H       99.893     -83.633     -16.465
  H      102.247     -76.236      -8.442
  H      102.376     -77.827      -9.153
  H      101.510     -77.609      -7.651

 3  4  5  6  7  8  9  10  11  12  23  26  30  31 0
 6-311+G(2d,p)
 ****
 33  35  36  37  38 0
 6-311+G(2d,p)
 ****
 1  2  13  14  15  16  17  18  19  20  21  22  24  25 0
 3-21G
 ****
 27  28  29  32  34  39  40  41  42  43  44  45  46  47  48  49 0
 3-21G
 ****


