%nproc=1
%NoSave
%Mem=1900MB
#P OB98/GEN NMR

erre ene a

0 1
  C       89.253     -88.831    -110.511
  O       89.269     -87.627    -109.770
  H       88.222     -89.046    -110.805
  H       89.623     -89.662    -109.905
  H       89.860     -88.730    -111.415
  P       90.660     -87.130    -109.152
  C       90.078     -88.263    -106.899
  O       91.015     -88.146    -107.965
  C       90.800     -88.449    -105.567
  O       91.676     -89.592    -105.626
  C       91.681     -87.272    -105.166
  O       90.893     -86.194    -104.703
  C       92.569     -87.930    -104.123
  O       91.880     -88.059    -102.869
  C       92.804     -89.321    -104.762
  N       94.059     -89.417    -105.502
  C       95.159     -89.906    -104.787
  O       95.041     -90.212    -103.601
  N       96.364     -90.013    -105.437
  C       96.456     -89.706    -106.692
  N       97.677     -89.840    -107.277
  C       95.313     -89.220    -107.489
  C       94.162     -89.090    -106.835
  O       90.735     -85.684    -108.770
  O       91.736     -87.500    -110.278
  H       91.527     -87.171    -102.663
  H       91.894     -86.735    -110.864
  H       95.433     -88.985    -108.536
  H       93.271     -88.738    -107.348
  H       92.806     -90.101    -103.990
  H       93.477     -87.359    -103.932
  H       92.310     -86.964    -106.010
  H       90.043     -88.653    -104.798
  H       98.426     -90.196    -106.693
  H       89.454     -89.138    -107.115
  H       97.828     -89.787    -108.272
  H       89.430     -87.381    -106.856
  P       91.261     -84.673    -105.051
  C       92.771     -84.648    -102.970
  O       92.687     -84.402    -104.365
  O       90.205     -83.672    -104.723
  O       91.632     -84.722    -106.607
  H       90.809     -84.771    -107.156
  H       93.762     -84.433    -102.629
  H       92.541     -85.675    -102.774
  H       92.073     -84.022    -102.455

 6  7  8  9  10  11  12  13  14  15  16  26  30  31  32  33  35 0
 6-311+G(2d,p)
 ****
 37  38 0
 6-311+G(2d,p)
 ****
 1  2  3  4  5  17  18  19  20  21  22  23  24  25 0
 3-21G
 ****
 27  28  29  34  36  39  40  41  42  43  44  45  46 0
 3-21G
 ****


