%nproc=1
%NoSave
%Mem=1900MB
#P OB98/GEN NMR

erre ene a

0 1
  C     -151.169     339.474     636.848
  O     -150.135     339.663     635.897
  P     -150.052     338.658     634.654
  C     -149.724     336.088     634.338
  O     -149.764     337.200     635.226
  C     -148.923     334.936     634.984
  O     -149.712     334.278     635.993
  C     -148.532     333.844     633.983
  O     -147.402     334.254     633.215
  C     -148.255     332.677     634.918
  O     -146.916     332.754     635.462
  C     -149.304     332.890     636.023
  N     -150.433     331.969     635.920
  C     -150.331     330.784     636.602
  O     -149.335     330.477     637.281
  N     -151.385     329.926     636.495
  C     -152.495     330.111     635.712
  O     -153.383     329.272     635.606
  C     -152.546     331.384     634.973
  C     -151.534     332.241     635.087
  O     -148.705     339.051     633.913
  O     -151.238     338.716     633.742
  H     -146.314     332.471     634.741
  H     -148.808     338.964     632.931
  H     -151.349     329.065     637.006
  H     -153.413     331.565     634.357
  H     -151.527     333.183     634.551
  H     -148.839     332.741     637.011
  H     -148.326     331.719     634.408
  H     -149.393     333.605     633.348
  H     -148.031     335.366     635.463
  H     -149.244     336.381     633.407
  H     -150.765     335.772     634.128
  P     -147.337     333.703     631.695
  C     -148.226     331.438     630.726
  O     -147.633     332.114     631.822
  O     -145.780     333.833     631.383
  O     -148.202     334.481     630.758
  H     -145.245     333.683     632.190
  H     -147.875     331.836     629.767
  H     -149.306     331.516     630.787
  H     -147.946     330.382     630.787
  H     -151.091     340.219     637.612
  H     -151.077     338.502     637.286
  H     -152.119     339.558     636.363

 3  4  5  6  7  8  9  10  11  12  13  23  28  29  30  31  32 0
 6-311+G(2d,p)
 ****
 33  34 0
 6-311+G(2d,p)
 ****
 1  2  14  15  16  17  18  19  20  21  22  24  25  26 0
 3-21G
 ****
 27  35  36  37  38  39  40  41  42  43  44  45 0
 3-21G
 ****


