%nproc=1
%NoSave
%Mem=1900MB
#P OB98/GEN NMR

erre ene a

0 1
  C     -115.992     -94.724       6.028
  O     -116.926     -95.752       6.363
  P     -117.337     -96.750       5.176
  C     -119.627     -97.303       6.263
  O     -118.397     -97.803       5.760
  C     -120.259     -98.299       7.237
  O     -120.382     -99.618       6.672
  C     -119.464     -98.471       8.524
  O     -119.727     -97.393       9.406
  C     -119.986     -99.806       9.036
  O     -121.216     -99.641       9.773
  C     -120.240    -100.590       7.739
  N     -118.534    -103.698       4.118
  C     -119.702    -102.963       4.175
  N     -120.520    -103.048       3.105
  N     -120.036    -102.209       5.191
  C     -119.122    -102.218       6.190
  C     -117.919    -102.882       6.236
  C     -117.563    -103.714       5.106
  O     -116.531    -104.366       4.999
  N     -117.232    -102.596       7.389
  C     -118.081    -101.865       8.089
  N     -119.214    -101.552       7.381
  O     -116.012     -97.619       4.950
  O     -117.754     -96.049       3.926
  H     -121.008     -99.318      10.668
  H     -115.604     -97.384       4.095
  H     -118.332    -104.269       3.314
  H     -117.910    -101.515       9.096
  H     -121.180    -101.152       7.788
  H     -119.281    -100.283       9.721
  H     -120.325    -103.607       2.289
  H     -118.392     -98.547       8.299
  H     -121.377    -102.511       3.124
  H     -121.268     -97.935       7.471
  H     -120.316     -97.108       5.439
  H     -119.443     -96.342       6.753
  P     -118.502     -96.800      10.252
  C     -119.612     -96.153      12.506
  O     -119.098     -95.714      11.264
  O     -117.705     -95.926       9.172
  O     -117.617     -97.834      10.867
  H     -116.748     -96.092       9.262
  H     -119.483     -95.355      13.241
  H     -119.101     -97.051      12.862
  H     -120.680     -96.365      12.397
  H     -115.795     -94.125       6.893
  H     -116.401     -94.109       5.254
  H     -115.080     -95.168       5.687

 3  4  5  6  7  8  9  10  11  12  23  26  30  31 0
 6-311+G(2d,p)
 ****
 33  35  36  37  38 0
 6-311+G(2d,p)
 ****
 1  2  13  14  15  16  17  18  19  20  21  22  24  25 0
 3-21G
 ****
 27  28  29  32  34  39  40  41  42  43  44  45  46  47  48  49 0
 3-21G
 ****


