%nproc=1
%NoSave
%Mem=1900MB
#P OB98/GEN NMR

erre ene a

0 1
  C       60.996    -223.192     261.699
  O       60.401    -221.937     261.350
  P       61.283    -220.624     261.077
  C       62.347    -220.770     258.742
  O       61.267    -220.245     259.510
  C       61.899    -221.352     257.391
  O       61.174    -222.601     257.576
  C       60.990    -220.434     256.559
  O       61.276    -220.729     255.190
  C       59.602    -220.934     256.937
  O       58.593    -220.563     256.009
  C       59.863    -222.440     257.007
  N       55.401    -224.967     256.880
  C       56.231    -224.554     255.894
  N       57.418    -223.925     256.006
  C       57.753    -223.755     257.299
  C       57.016    -224.132     258.417
  C       55.774    -224.752     258.166
  N       54.904    -225.131     259.166
  N       57.665    -223.763     259.580
  C       58.774    -223.172     259.175
  N       58.874    -223.146     257.803
  O       62.655    -220.673     261.676
  O       60.443    -219.434     261.751
  H       57.762    -221.014     256.262
  H       61.044    -218.870     262.273
  H       55.890    -224.758     254.880
  H       59.518    -222.729     259.819
  H       59.870    -222.889     256.004
  H       59.325    -220.524     257.918
  H       61.132    -219.374     256.766
  H       62.807    -221.602     256.823
  H       62.847    -221.554     259.330
  H       54.003    -225.485     258.892
  H       55.108    -224.870     260.125
  H       63.076    -219.969     258.568
  P       61.648    -219.577     254.138
  C       63.540    -218.197     255.182
  O       63.214    -219.277     254.320
  O       60.766    -218.371     254.190
  O       61.575    -220.300     252.709
  H       61.484    -219.622     252.005
  H       63.357    -217.245     254.671
  H       64.596    -218.265     255.452
  H       62.943    -218.236     256.099
  H       60.229    -223.925     261.835
  H       61.550    -223.084     262.608
  H       61.654    -223.505     260.915

 3  4  5  6  7  8  9  10  11  12  22  25  29  30  31  32 0
 6-311+G(2d,p)
 ****
 33  36  37 0
 6-311+G(2d,p)
 ****
 1  2  13  14  15  16  17  18  19  20  21  23  24  26 0
 3-21G
 ****
 27  28  34  35  38  39  40  41  42  43  44  45  46  47  48 0
 3-21G
 ****


