%nproc=1
%NoSave
%Mem=1900MB
#P OB98/GEN NMR

erre ene a

0 1
  C      657.159    -718.968    -824.971
  O      656.355    -718.753    -823.827
  H      657.151    -718.063    -825.582
  H      656.764    -719.794    -825.558
  H      658.191    -719.182    -824.677
  P      656.321    -719.920    -822.730
  C      657.652    -718.212    -821.281
  O      657.468    -719.569    -821.664
  C      658.181    -718.150    -819.849
  O      657.194    -718.729    -818.962
  C      659.492    -718.922    -819.652
  O      660.314    -718.216    -818.721
  C      659.029    -720.231    -819.036
  O      660.034    -720.900    -818.290
  C      657.850    -719.753    -818.182
  N      656.921    -720.833    -817.853
  C      657.283    -721.704    -816.835
  O      658.292    -721.587    -816.141
  N      656.433    -722.756    -816.621
  C      655.294    -723.024    -817.321
  O      654.586    -723.992    -817.094
  C      654.962    -722.074    -818.391
  C      655.780    -721.037    -818.604
  O      656.925    -721.182    -823.512
  O      654.984    -720.206    -822.131
  H      656.211    -721.686    -823.949
  H      660.855    -720.894    -818.819
  H      656.684    -723.395    -815.880
  H      654.075    -722.261    -818.974
  H      655.576    -720.330    -819.395
  H      658.214    -719.283    -817.262
  H      658.683    -720.914    -819.821
  H      660.036    -719.082    -820.585
  H      658.299    -717.098    -819.562
  H      656.685    -717.697    -821.334
  H      658.353    -717.737    -821.971
  P      661.696    -717.609    -819.279
  C      660.470    -715.440    -820.072
  O      661.283    -716.546    -820.412
  O      662.287    -718.851    -820.085
  O      662.574    -717.075    -818.192
  H      661.604    -719.374    -820.545
  H      660.297    -714.843    -820.943
  H      660.963    -714.850    -819.328
  H      659.534    -715.790    -819.688

 6  7  8  9  10  11  12  13  14  15  16  27  31  32  33  34  35 0
 6-311+G(2d,p)
 ****
 36  37 0
 6-311+G(2d,p)
 ****
 1  2  3  4  5  17  18  19  20  21  22  23  24  25 0
 3-21G
 ****
 26  28  29  30  38  39  40  41  42  43  44  45 0
 3-21G
 ****


