%nproc=1
%NoSave
%Mem=1900MB
#P OB98/GEN NMR

erre ene a

0 1
  C     -660.885     711.140    -395.320
  O     -660.131     711.940    -394.433
  H     -661.930     711.456    -395.277
  H     -660.818     710.088    -395.034
  H     -660.520     711.267    -396.345
  P     -658.551     711.647    -394.366
  C     -657.689     712.593    -396.635
  O     -657.847     712.796    -395.231
  C     -656.747     713.654    -397.198
  O     -657.365     714.954    -397.128
  C     -655.427     713.781    -396.432
  O     -654.512     712.749    -396.761
  C     -654.982     715.168    -396.867
  O     -654.306     715.134    -398.136
  C     -656.298     715.928    -396.989
  N     -655.211     720.441    -394.858
  C     -654.875     719.898    -396.047
  N     -655.218     718.694    -396.550
  C     -656.013     718.031    -395.684
  C     -656.450     718.460    -394.443
  C     -656.009     719.727    -394.024
  N     -656.335     720.273    -392.798
  N     -657.226     717.486    -393.842
  C     -657.265     716.493    -394.709
  N     -656.558     716.785    -395.845
  O     -658.391     710.334    -395.267
  O     -658.003     711.453    -392.988
  H     -653.621     714.436    -398.048
  H     -658.325     709.548    -394.687
  H     -654.239     720.521    -396.684
  H     -657.781     715.550    -394.565
  H     -656.337     716.567    -397.887
  H     -654.296     715.598    -396.137
  H     -655.630     713.794    -395.352
  H     -656.556     713.423    -398.262
  H     -658.670     712.684    -397.126
  H     -657.291     711.588    -396.807
  H     -655.929     721.149    -392.544
  H     -656.836     719.695    -392.134
  P     -653.361     712.430    -395.700
  C     -654.536     710.368    -394.609
  O     -653.438     710.868    -395.365
  O     -653.862     713.126    -394.349
  O     -651.995     712.904    -396.103
  H     -653.101     713.479    -393.851
  H     -654.428     709.311    -394.479
  H     -655.449     710.572    -395.128
  H     -654.556     710.845    -393.651

 6  7  8  9  10  11  12  13  14  15  25  28  32  33  34  35 0
 6-311+G(2d,p)
 ****
 36  37  40 0
 6-311+G(2d,p)
 ****
 1  2  3  4  5  16  17  18  19  20  21  22  23  24 0
 3-21G
 ****
 26  27  29  30  31  38  39 41  42  43  44  45  46  47  48 0
 3-21G
 ****


