%nproc=1
%NoSave
%Mem=1900MB
#P OB98/GEN NMR

erre ene a

0 1
  C     1049.430     235.027    -539.260
  O     1050.137     233.886    -539.722
  P     1049.423     232.458    -539.550
  C     1049.158     232.051    -542.111
  O     1048.513     232.260    -540.856
  C     1048.494     230.905    -542.865
  O     1047.140     231.251    -543.195
  C     1049.163     230.555    -544.172
  O     1050.347     229.803    -543.945
  C     1048.067     229.780    -544.880
  O     1048.091     228.390    -544.523
  C     1046.780     230.467    -544.362
  N     1046.126     231.276    -545.375
  C     1045.274     230.581    -546.244
  O     1045.142     229.369    -546.135
  N     1044.640     231.285    -547.244
  C     1044.846     232.573    -547.353
  N     1044.183     233.217    -548.350
  C     1045.748     233.325    -546.468
  C     1046.354     232.625    -545.514
  O     1048.367     232.717    -538.382
  O     1050.359     231.330    -539.234
  H     1048.257     228.366    -543.554
  H     1048.171     231.884    -537.902
  H     1045.879     234.387    -546.597
  H     1047.034     233.100    -544.814
  H     1046.065     229.709    -544.012
  H     1048.171     229.822    -545.974
  H     1049.397     231.467    -544.744
  H     1048.466     230.029    -542.199
  H     1043.583     232.667    -548.947
  H     1050.209     231.804    -541.932
  H     1044.255     234.214    -548.504
  H     1049.107     232.980    -542.685
  P     1051.696     230.303    -544.643
  C     1052.703     231.208    -542.455
  O     1052.193     231.539    -543.739
  O     1051.150     231.053    -545.949
  O     1052.722     229.265    -544.968
  H     1051.905     231.320    -546.509
  H     1053.152     232.102    -542.013
  H     1053.478     230.443    -542.545
  H     1051.895     230.849    -541.806
  H     1050.016     235.905    -539.435
  H     1049.240     234.928    -538.212
  H     1048.501     235.108    -539.785

 3  4  5  6  7  8  9  10  11  12  13  21  23  27  28  29  30  32 0
 6-311+G(2d,p)
 ****
 34  35 0
 6-311+G(2d,p)
 ****
 1  2  14  15  16  17  18  19  20  22  24  25  26 0
 3-21G
 ****
 31  33  36  37  38  39  40  41  42  43  44  45  46 0
 3-21G
 ****


