%nproc=1
%NoSave
%Mem=1900MB
#P OB98/GEN NMR

erre ene a

0 1
  C     -490.066     -60.950    -478.497
  O     -488.989     -61.256    -477.630
  P     -489.189     -62.302    -476.436
  C     -486.899     -63.373    -476.906
  O     -488.297     -63.600    -476.739
  C     -486.475     -63.693    -478.333
  O     -487.140     -62.822    -479.275
  C     -484.983     -63.497    -478.599
  O     -484.201     -64.506    -478.002
  C     -484.959     -63.469    -480.122
  O     -484.995     -64.801    -480.655
  C     -486.282     -62.728    -480.440
  N     -486.061     -61.343    -480.830
  C     -485.804     -61.114    -482.187
  O     -485.698     -62.060    -482.969
  N     -485.675     -59.819    -482.623
  C     -485.669     -58.851    -481.767
  N     -485.599     -57.587    -482.260
  C     -485.776     -59.058    -480.302
  C     -485.990     -60.321    -479.914
  O     -490.612     -62.588    -476.072
  O     -488.413     -61.626    -475.203
  H     -489.010     -61.624    -474.424
  H     -484.152     -65.224    -480.402
  H     -485.697     -58.221    -479.624
  H     -486.101     -60.563    -478.865
  H     -486.817     -63.238    -481.247
  H     -484.062     -62.983    -480.517
  H     -484.678     -62.512    -478.217
  H     -486.767     -64.728    -478.557
  H     -485.543     -57.474    -483.264
  H     -486.358     -64.010    -476.203
  H     -485.907     -56.770    -481.730
  H     -486.668     -62.324    -476.662
  P     -483.636     -64.209    -476.529
  C     -484.590     -66.260    -475.271
  O     -484.654     -64.867    -475.484
  O     -483.865     -62.633    -476.353
  O     -482.199     -64.574    -476.330
  H     -483.130     -62.249    -475.844
  H     -485.071     -66.498    -474.324
  H     -483.555     -66.620    -475.242
  H     -485.132     -66.777    -476.076
  H     -489.745     -60.237    -479.227
  H     -490.875     -60.540    -477.930
  H     -490.392     -61.842    -478.990

 3  4  5  6  7  8  9  10  11  12  13  24  27  28  29  30  32 0
 6-311+G(2d,p)
 ****
 34  35 0
 6-311+G(2d,p)
 ****
 1  2  14  15  16  17  18  19  20  21  22  23  25  26 0
 3-21G
 ****
 31  33  36  37  38  39  40  41  42  43  44  45  46 0
 3-21G
 ****


