%nproc=1
%NoSave
%Mem=1900MB
#P OB98/GEN NMR

erre ene a

0 1
  C      164.834      42.872      28.342
  O      164.524      44.248      28.465
  P      165.173      45.274      27.422
  C      167.164      46.092      28.880
  O      165.927      46.413      28.264
  C      167.300      46.825      30.216
  O      168.457      46.305      30.937
  C      167.492      48.343      30.080
  O      166.846      48.963      31.201
  C      168.995      48.496      30.210
  O      169.396      49.811      30.559
  C      169.283      47.436      31.279
  N      170.696      47.070      31.352
  C      171.399      47.464      32.486
  O      170.905      48.096      33.418
  N      172.734      47.159      32.494
  C      173.436      46.596      31.470
  O      174.654      46.456      31.495
  C      172.641      46.202      30.297
  C      171.329      46.451      30.292
  O      163.903      46.030      26.812
  O      166.007      44.639      26.360
  H      168.954      50.040      31.397
  H      163.672      45.661      25.940
  H      173.257      47.427      33.313
  H      173.163      45.732      29.474
  H      170.722      46.189      29.431
  H      168.947      47.791      32.262
  H      169.471      48.240      29.256
  H      167.104      48.751      29.142
  H      166.413      46.606      30.826
  H      167.981      46.393      28.222
  H      167.232      45.009      29.026
  P      165.417      49.655      30.958
  C      166.387      52.026      30.444
  O      165.597      51.211      31.284
  O      164.595      49.089      32.213
  O      164.803      49.315      29.638
  H      165.109      49.109      33.036
  H      166.318      51.714      29.399
  H      167.429      51.976      30.768
  H      166.041      53.060      30.528
  H      164.326      42.322      29.107
  H      165.890      42.734      28.445
  H      164.520      42.520      27.382

 3  4  5  6  7  8  9  10  11  12  13  23  28  29  30  31  32 0
 6-311+G(2d,p)
 ****
 33  34 0
 6-311+G(2d,p)
 ****
 1  2  14  15  16  17  18  19  20  21  22  24  25  26 0
 3-21G
 ****
 27  35  36  37  38  39  40  41  42  43  44  45 0
 3-21G
 ****


