%nproc=1
%NoSave
%Mem=1900MB
#P OB98/GEN NMR

erre ene a

0 1
  C      455.003    -357.703     -24.247
  O      455.207    -359.075     -24.542
  H      454.424    -357.622     -23.324
  H      454.439    -357.231     -25.056
  H      455.963    -357.195     -24.111
  P      456.133    -359.421     -25.803
  C      457.443    -361.160     -24.365
  O      456.700    -360.904     -25.552
  C      457.440    -362.660     -24.065
  O      456.100    -363.038     -23.633
  C      457.797    -363.526     -25.279
  O      458.563    -364.652     -24.842
  C      456.439    -363.990     -25.786
  O      456.498    -365.193     -26.550
  C      455.670    -364.141     -24.467
  N      454.225    -364.114     -24.655
  C      453.636    -365.198     -25.293
  O      454.238    -366.212     -25.652
  N      452.286    -365.088     -25.529
  C      451.497    -364.017     -25.216
  O      450.301    -363.972     -25.484
  C      452.175    -362.896     -24.545
  C      453.486    -362.997     -24.303
  O      457.420    -358.492     -25.583
  O      455.504    -359.221     -27.143
  H      457.295    -357.629     -26.020
  H      457.174    -365.066     -27.248
  H      451.851    -365.873     -25.996
  H      451.584    -362.030     -24.299
  H      454.018    -362.172     -23.827
  H      455.962    -365.063     -23.961
  H      455.990    -363.212     -26.406
  H      458.353    -362.976     -26.042
  H      458.112    -362.851     -23.228
  H      456.980    -360.618     -23.531
  H      458.470    -360.796     -24.492
  P      459.987    -364.900     -25.548
  C      461.311    -364.973     -23.285
  O      460.891    -365.663     -24.458
  O      460.581    -363.416     -25.586
  O      459.866    -365.572     -26.870
  H      460.356    -362.882     -24.799
  H      461.899    -365.628     -22.677
  H      460.452    -364.650     -22.734
  H      461.897    -364.122     -23.562

 6  7  8  9  10  11  12  13  14  15  16  27  31  32  33  34  35 0
 6-311+G(2d,p)
 ****
 36  37 0
 6-311+G(2d,p)
 ****
 1  2  3  4  5  17  18  19  20  21  22  23  24  25 0
 3-21G
 ****
 26  28  29  30  38  39  40  41  42  43  44  45 0
 3-21G
 ****


