%nproc=1
%NoSave
%Mem=1900MB
#P OB98/GEN NMR

erre ene a

0 1
  C     -474.287      39.547      27.827
  O     -474.324      38.567      28.855
  P     -473.355      38.668      30.129
  C     -471.772      36.779      29.396
  O     -472.771      37.186      30.322
  C     -471.159      35.451      29.835
  O     -470.545      35.639      31.131
  C     -472.137      34.295      30.019
  O     -472.456      33.593      28.826
  C     -471.332      33.383      30.937
  O     -470.356      32.657      30.167
  C     -470.638      34.389      31.860
  N     -471.521      32.586      36.567
  C     -470.709      32.162      35.573
  N     -470.544      32.684      34.340
  C     -471.296      33.788      34.191
  C     -472.166      34.343      35.114
  C     -472.267      33.694      36.356
  N     -473.077      34.141      37.376
  N     -472.779      35.467      34.592
  C     -472.272      35.588      33.380
  N     -471.370      34.604      33.095
  O     -473.979      39.283      31.333
  O     -472.088      39.485      29.599
  H     -470.848      32.067      29.566
  H     -471.571      39.825      30.355
  H     -470.114      31.280      35.794
  H     -472.537      36.369      32.680
  H     -469.617      34.086      32.120
  H     -471.947      32.640      31.448
  H     -473.047      34.618      30.541
  H     -470.368      35.182      29.122
  H     -470.990      37.547      29.376
  H     -472.990      33.692      38.271
  H     -473.506      35.054      37.277
  H     -472.205      36.704      28.396
  P     -473.940      33.780      28.235
  C     -474.677      31.292      27.913
  O     -474.213      32.486      27.327
  O     -474.180      35.092      27.574
  O     -474.865      33.533      29.518
  H     -474.860      32.625      29.863
  H     -474.950      30.594      27.117
  H     -475.559      31.475      28.532
  H     -473.890      30.838      28.520
  H     -475.005      39.300      27.073
  H     -473.309      39.573      27.394
  H     -474.519      40.506      28.240

 3  4  5  6  7  8  9  10  11  12  22  25  29  30  31  32 0
 6-311+G(2d,p)
 ****
 33  36  37 0
 6-311+G(2d,p)
 ****
 1  2  13  14  15  16  17  18  19  20  21  23  24  26 0
 3-21G
 ****
 27  28  34  35  38  39  40  41  42  43  44  45  46  47  48 0
 3-21G
 ****


