%nproc=1
%NoSave
%Mem=1900MB
#P OB98/GEN NMR

erre ene a

0 1
  C        3.884     -16.254       8.272
  O        3.484     -15.238       9.169
  H        3.481     -16.029       7.282
  H        3.489     -17.217       8.602
  H        4.976     -16.302       8.206
  P        4.152     -15.236      10.625
  C        5.575     -13.234      11.479
  O        4.301     -13.695      11.057
  C        5.646     -11.713      11.356
  O        5.875     -11.371       9.960
  C        4.369     -10.990      11.802
  O        4.741      -9.759      12.429
  C        3.669     -10.689      10.490
  O        2.755      -9.604      10.560
  C        4.870     -10.409       9.581
  N        4.540     -10.525       8.162
  C        4.279      -9.348       7.469
  O        4.389      -8.217       7.939
  N        3.873      -9.507       6.168
  C        3.686     -10.692       5.522
  O        3.300     -10.769       4.362
  C        3.968     -11.900       6.309
  C        4.373     -11.762       7.574
  O        5.659     -15.684      10.329
  O        3.485     -16.103      11.639
  H        5.740     -16.655      10.373
  H        2.060      -9.848      11.205
  H        3.679      -8.664       5.652
  H        3.820     -12.860       5.833
  H        4.570     -12.634       8.189
  H        5.278      -9.413       9.784
  H        3.120     -11.573      10.149
  H        3.737     -11.574      12.480
  H        6.515     -11.354      11.920
  H        6.349     -13.679      10.846
  H        5.745     -13.543      12.516
  P        4.759      -9.724      14.034
  C        5.609      -7.976      15.791
  O        5.402      -8.309      14.426
  O        5.908     -10.786      14.352
  O        3.429     -10.026      14.637
  H        6.628     -10.777      13.698
  H        6.043      -7.000      15.858
  H        6.268      -8.691      16.237
  H        4.671      -7.985      16.307

 6  7  8  9  10  11  12  13  14  15  16  27  31  32  33  34  35 0
 6-311+G(2d,p)
 ****
 36  37 0
 6-311+G(2d,p)
 ****
 1  2  3  4  5  17  18  19  20  21  22  23  24  25 0
 3-21G
 ****
 26  28  29  30  38  39  40  41  42  43  44  45 0
 3-21G
 ****


