%nproc=1
%NoSave
%Mem=1900MB
#P OB98/GEN NMR

erre ene a

0 1
  C      -38.037      11.345     129.440
  O      -37.922      11.391     128.032
  H      -39.095      11.427     129.706
  H      -37.500      12.183     129.891
  H      -37.651      10.401     129.831
  P      -36.486      11.138     127.367
  C      -37.010       9.089     125.890
  O      -36.380       9.567     127.071
  C      -37.741       7.782     126.186
  O      -38.811       8.011     127.129
  C      -38.396       7.153     124.963
  O      -37.438       6.515     124.141
  C      -39.394       6.217     125.623
  O      -38.758       5.002     126.048
  C      -39.854       7.054     126.837
  N      -41.136       7.721     126.614
  C      -42.244       7.162     127.243
  O      -42.188       6.142     127.929
  N      -43.436       7.803     127.032
  C      -43.641       8.851     126.183
  O      -44.747       9.332     125.960
  C      -42.440       9.385     125.527
  C      -41.262       8.806     125.769
  O      -35.323      11.724     128.095
  O      -36.634      11.768     125.901
  H      -37.922       5.266     126.480
  H      -36.160      12.619     125.866
  H      -44.252       7.405     127.468
  H      -42.560      10.225     124.858
  H      -40.366       9.181     125.289
  H      -39.951       6.415     127.724
  H      -40.204       5.935     124.950
  H      -38.946       7.914     124.397
  H      -37.028       7.086     126.648
  H      -36.243       8.914     125.129
  H      -37.706       9.851     125.525
  P      -36.609       7.368     123.071
  C      -34.170       6.770     123.617
  O      -35.200       7.746     123.735
  O      -37.345       8.511     122.456
  O      -36.204       6.291     121.958
  H      -36.587       6.554     121.100
  H      -33.282       7.129     124.094
  H      -33.970       6.586     122.582
  H      -34.484       5.861     124.086

 6  7  8  9  10  11  12  13  14  15  16  26  31  32  33  34  35 0
 6-311+G(2d,p)
 ****
 36  37 0
 6-311+G(2d,p)
 ****
 1  2  3  4  5  17  18  19  20  21  22  23  24  25 0
 3-21G
 ****
 27  28  29  30  38  39  40  41  42  43  44  45 0
 3-21G
 ****


