%nproc=1
%NoSave
%Mem=1900MB
#P OB98/GEN NMR

erre ene a

0 1
  C      -34.950     191.950    -272.315
  O      -35.881     191.460    -273.257
  H      -34.914     193.041    -272.388
  H      -33.957     191.553    -272.539
  H      -35.241     191.674    -271.297
  P      -36.323     189.925    -273.116
  C      -38.850     190.435    -273.399
  O      -37.711     189.760    -273.914
  C      -40.049     190.229    -274.324
  O      -39.934     191.139    -275.451
  C      -40.164     188.805    -274.886
  O      -41.545     188.434    -274.935
  C      -39.620     188.936    -276.298
  O      -40.129     187.936    -277.179
  C      -40.050     190.355    -276.654
  N      -40.153     192.474    -281.227
  C      -41.188     192.112    -280.385
  N      -42.443     192.341    -280.835
  N      -41.010     191.570    -279.210
  C      -39.704     191.434    -278.878
  C      -38.589     191.748    -279.621
  C      -38.800     192.318    -280.934
  O      -37.927     192.638    -281.734
  N      -37.435     191.427    -278.950
  C      -37.852     190.919    -277.804
  N      -39.220     190.910    -277.712
  O      -36.757     189.809    -271.579
  O      -35.274     188.922    -273.465
  H      -39.786     187.070    -276.870
  H      -36.158     189.199    -271.114
  H      -40.348     192.874    -282.129
  H      -37.214     190.540    -277.016
  H      -41.089     190.403    -276.999
  H      -38.525     188.848    -276.280
  H      -42.654     192.797    -281.707
  H      -39.613     188.068    -274.299
  H      -43.216     192.118    -280.219
  H      -40.962     190.510    -273.782
  H      -38.627     191.505    -273.327
  H      -39.080     190.049    -272.401
  P      -41.929     186.975    -274.379
  C      -43.597     187.789    -272.571
  O      -43.413     187.044    -273.768
  O      -40.992     186.819    -273.091
  O      -41.694     185.877    -275.363
  H      -40.281     186.181    -273.272
  H      -44.626     187.749    -272.281
  H      -43.312     188.807    -272.737
  H      -42.991     187.371    -271.794

 6  7  8  9  10  11  12  13  14  15  26  29  33  34 0
 6-311+G(2d,p)
 ****
 36  38  39  40  41 0
 6-311+G(2d,p)
 ****
 1  2  3  4  5  16  17  18  19  20  21  22  23  24  25 0
 3-21G
 ****
 27  28  30  31  32  35  37  42  43  44  45  46  47 0
 3-21G
 ****
 48  49 0
 3-21G
 ****


