%nproc=1
%NoSave
%Mem=1900MB
#P OB98/GEN NMR

erre ene a

0 1
  C     -120.877     102.465      -9.945
  O     -122.262     102.180      -9.851
  P     -122.802     100.684     -10.005
  C     -122.428     100.370      -7.489
  O     -122.205      99.825      -8.784
  C     -123.759      99.895      -6.910
  O     -123.820      98.442      -6.983
  C     -123.997     100.288      -5.442
  O     -125.402     100.511      -5.297
  C     -123.604      99.025      -4.690
  O     -124.163      98.960      -3.385
  C     -124.120      97.961      -5.656
  N     -124.923      92.926      -5.258
  C     -125.776      93.962      -5.409
  N     -125.486      95.279      -5.481
  C     -124.160      95.479      -5.383
  C     -123.174      94.524      -5.196
  C     -123.600      93.183      -5.148
  N     -122.741      92.111      -5.031
  N     -121.934      95.130      -5.081
  C     -122.173      96.421      -5.201
  N     -123.492      96.671      -5.448
  O     -122.604     100.072     -11.353
  O     -124.357     100.796      -9.643
  H     -123.790      99.688      -2.852
  H     -124.893     100.723     -10.459
  H     -126.829      93.702      -5.489
  H     -121.434      97.206      -5.116
  H     -125.204      97.827      -5.581
  H     -122.512      98.979      -4.594
  H     -123.429     101.163      -5.118
  H     -124.567     100.282      -7.544
  H     -122.441     101.460      -7.580
  H     -123.139      91.192      -5.144
  H     -121.748      92.252      -5.214
  H     -121.604     100.089      -6.823
  P     -125.946     101.419      -4.088
  C     -126.971     102.937      -5.878
  O     -126.196     102.878      -4.693
  O     -125.132     101.370      -2.838
  O     -127.435     100.866      -3.849
  H     -127.749     101.148      -2.970
  H     -126.339     102.698      -6.738
  H     -127.369     103.949      -5.997
  H     -127.807     102.232      -5.837
  H     -120.719     103.515      -9.816
  H     -120.516     102.166     -10.907
  H     -120.350     101.929      -9.184

 3  4  5  6  7  8  9  10  11  12  22  25  29  30  31  32 0
 6-311+G(2d,p)
 ****
 33  36  37 0
 6-311+G(2d,p)
 ****
 1  2  13  14  15  16  17  18  19  20  21  23  24  26 0
 3-21G
 ****
 27  28  34  35  38  39  40  41  42  43  44  45  46  47  48 0
 3-21G
 ****


