%nproc=1
%NoSave
%Mem=1900MB
#P OB98/GEN NMR

erre ene a

0 1
  C     -200.792    -174.483     367.965
  O     -200.513    -175.249     369.142
  P     -201.676    -176.185     369.726
  C     -200.895    -178.669     369.672
  O     -201.588    -177.617     369.011
  C     -199.767    -179.209     368.785
  O     -198.751    -178.212     368.539
  C     -199.030    -180.392     369.385
  O     -199.733    -181.608     369.168
  C     -197.742    -180.380     368.578
  O     -197.966    -180.989     367.290
  C     -197.478    -178.876     368.413
  N     -193.060    -179.620     370.908
  C     -193.730    -180.373     370.002
  N     -194.906    -180.119     369.397
  C     -195.399    -178.937     369.799
  C     -194.837    -178.057     370.714
  C     -193.612    -178.440     371.283
  N     -192.944    -177.668     372.201
  N     -195.640    -176.949     370.885
  C     -196.661    -177.145     370.072
  N     -196.563    -178.336     369.402
  O     -203.005    -175.545     369.096
  O     -201.739    -176.218     371.218
  H     -197.087    -181.114     366.877
  H     -203.743    -175.629     369.728
  H     -193.248    -181.309     369.722
  H     -197.483    -176.457     369.936
  H     -197.071    -178.631     367.425
  H     -196.937    -180.942     369.060
  H     -198.812    -180.226     370.447
  H     -200.208    -179.496     367.818
  H     -201.587    -179.474     369.933
  H     -192.051    -177.989     372.544
  H     -193.335    -176.777     372.469
  H     -200.496    -178.290     370.617
  P     -200.184    -182.436     370.464
  C     -202.265    -183.840     369.798
  O     -201.769    -182.626     370.328
  O     -200.020    -181.372     371.648
  O     -199.390    -183.680     370.713
  H     -199.797    -181.826     372.484
  H     -203.324    -183.925     370.053
  H     -201.733    -184.701     370.214
  H     -202.166    -183.835     368.708
  H     -199.927    -173.912     367.697
  H     -201.611    -173.821     368.156
  H     -201.046    -175.143     367.162

 3  4  5  6  7  8  9  10  11  12  22  25  29  30  31  32 0
 6-311+G(2d,p)
 ****
 33  36  37 0
 6-311+G(2d,p)
 ****
 1  2  13  14  15  16  17  18  19  20  21  23  24  26 0
 3-21G
 ****
 27  28  34  35  38  39  40  41  42  43  44  45  46  47  48 0
 3-21G
 ****


