%nproc=1
%NoSave
%Mem=1900MB
#P OB98/GEN NMR

erre ene a

0 1
  C     -124.036     170.747     -56.614
  O     -124.736     169.553     -56.331
  P     -126.328     169.491     -56.498
  C     -126.624     169.341     -59.046
  O     -126.714     170.176     -57.896
  C     -127.964     169.288     -59.774
  O     -129.006     168.803     -58.897
  C     -128.458     170.639     -60.263
  O     -127.725     171.100     -61.385
  C     -129.925     170.333     -60.534
  O     -130.086     169.686     -61.805
  C     -130.254     169.355     -59.387
  N     -131.011     169.987     -58.318
  C     -132.405     169.927     -58.435
  O     -132.927     169.439     -59.434
  N     -133.169     170.436     -57.413
  C     -132.598     171.059     -56.429
  N     -133.400     171.487     -55.419
  C     -131.138     171.284     -56.354
  C     -130.414     170.705     -57.310
  O     -127.112     169.978     -55.326
  O     -126.628     167.939     -56.772
  H     -127.338     167.646     -56.168
  H     -129.386     170.036     -62.387
  H     -130.719     171.866     -55.548
  H     -129.332     170.799     -57.323
  H     -130.827     168.502     -59.769
  H     -130.544     171.235     -60.550
  H     -128.382     171.375     -59.454
  H     -127.869     168.588     -60.614
  H     -134.390     171.299     -55.495
  H     -126.337     168.334     -58.728
  H     -133.043     171.681     -54.486
  H     -125.841     169.727     -59.709
  P     -127.895     172.647     -61.779
  C     -126.000     173.727     -60.386
  O     -127.390     173.516     -60.534
  O     -129.484     172.856     -61.770
  O     -127.306     173.020     -63.098
  H     -129.736     173.475     -62.479
  H     -125.844     174.591     -59.735
  H     -125.518     173.919     -61.348
  H     -125.545     172.848     -59.917
  H     -122.990     170.596     -56.446
  H     -124.391     171.528     -55.975
  H     -124.197     171.021     -57.636

 3  4  5  6  7  8  9  10  11  12  13  24  27  28  29  30  32 0
 6-311+G(2d,p)
 ****
 34  35 0
 6-311+G(2d,p)
 ****
 1  2  14  15  16  17  18  19  20  21  22  23  25  26 0
 3-21G
 ****
 31  33  36  37  38  39  40  41  42  43  44  45  46 0
 3-21G
 ****


