%nproc=1
%NoSave
%Mem=1900MB
#P OB98/GEN NMR

erre ene a

0 1
  C     -258.291     148.223      74.348
  O     -259.192     149.309      74.372
  H     -257.806     148.192      73.369
  H     -258.830     147.284      74.500
  H     -257.521     148.337      75.116
  P     -259.903     149.693      75.755
  C     -261.242     147.488      75.861
  O     -261.298     148.903      75.792
  C     -262.543     146.919      76.437
  O     -262.708     147.424      77.798
  C     -263.809     147.314      75.653
  O     -264.751     146.243      75.813
  C     -264.243     148.554      76.415
  O     -265.540     148.973      76.072
  C     -264.004     148.060      77.847
  N     -264.030     149.094      78.877
  C     -265.185     149.212      79.643
  O     -266.182     148.508      79.519
  N     -265.168     150.203      80.592
  C     -264.133     151.052      80.851
  O     -264.163     151.898      81.734
  C     -262.942     150.881      80.004
  C     -262.942     149.922      79.075
  O     -259.994     151.152      76.055
  O     -259.030     148.920      76.855
  H     -258.425     149.548      77.293
  H     -265.792     149.727      76.646
  H     -265.994     150.302      81.161
  H     -262.106     151.544      80.174
  H     -262.075     149.766      78.442
  H     -264.730     147.284      78.103
  H     -263.584     149.389      76.173
  H     -263.619     147.478      74.589
  H     -262.448     145.829      76.515
  H     -260.399     147.209      76.505
  H     -261.069     147.085      74.858
  P     -264.668     144.864      74.996
  C     -266.020     145.841      73.013
  O     -265.917     144.807      73.986
  O     -264.541     143.654      75.861
  O     -263.401     145.021      74.029
  H     -263.038     144.138      73.823
  H     -266.891     145.680      72.412
  H     -265.150     145.832      72.390
  H     -266.096     146.788      73.505

 6  7  8  9  10  11  12  13  14  15  16  27  31  32  33  34  35 0
 6-311+G(2d,p)
 ****
 36  37 0
 6-311+G(2d,p)
 ****
 1  2  3  4  5  17  18  19  20  21  22  23  24  25 0
 3-21G
 ****
 26  28  29  30  38  39  40  41  42  43  44  45 0
 3-21G
 ****


