%nproc=1
%NoSave
%Mem=1900MB
#P OB98/GEN NMR

erre ene a

0 1
  C      -95.645      84.822       6.757
  O      -96.851      85.388       7.283
  P      -96.761      86.861       7.910
  C      -99.220      87.381       7.227
  O      -98.243      87.355       8.263
  C     -100.623      87.477       7.829
  O     -101.081      86.194       8.295
  C     -100.693      88.389       9.042
  O     -100.708      89.747       8.644
  C     -101.982      87.930       9.713
  O     -103.121      88.662       9.231
  C     -102.074      86.441       9.306
  N     -101.913      85.540      10.436
  C     -103.024      85.408      11.275
  O     -104.052      86.052      11.053
  N     -102.933      84.571      12.358
  C     -101.823      83.944      12.596
  N     -101.789      83.132      13.687
  C     -100.619      84.076      11.749
  C     -100.732      84.885      10.697
  O      -96.356      87.769       6.656
  O      -95.771      86.985       9.023
  H     -103.214      88.415       8.289
  H      -95.795      88.513       6.945
  H      -99.715      83.539      11.993
  H      -99.899      85.042      10.021
  H     -103.048      86.232       8.845
  H     -101.944      88.081      10.796
  H      -99.841      88.195       9.706
  H     -101.311      87.837       7.050
  H     -102.630      83.068      14.246
  H      -99.140      86.483       6.613
  H     -100.977      82.604      13.969
  H      -99.014      88.231       6.570
  P      -99.453      90.656       9.046
  C      -99.796      91.626       6.693
  O      -99.511      91.911       8.047
  O      -98.225      89.816       8.446
  O      -99.263      90.963      10.491
  H      -97.380      90.223       8.708
  H     -100.012      92.562       6.174
  H     -100.666      90.969       6.610
  H      -98.927      91.155       6.223
  H      -95.848      83.844       6.374
  H      -94.913      84.756       7.535
  H      -95.273      85.444       5.970

 3  4  5  6  7  8  9  10  11  12  13  21  23  27  28  29  30  32 0
 6-311+G(2d,p)
 ****
 34  35 0
 6-311+G(2d,p)
 ****
 1  2  14  15  16  17  18  19  20  22  24  25  26 0
 3-21G
 ****
 31  33  36  37  38  39  40  41  42  43  44  45  46 0
 3-21G
 ****


