%nproc=1
%NoSave
%Mem=1900MB
#P OB98/GEN NMR

erre ene a

0 1
  C      623.646    -890.406      -4.162
  O      622.529    -889.509      -3.997
  P      621.151    -889.853      -4.735
  C      618.705    -889.193      -4.147
  O      620.053    -888.768      -4.333
  C      617.750    -887.988      -4.167
  O      617.924    -887.143      -3.015
  C      617.940    -887.077      -5.376
  O      617.267    -887.584      -6.507
  C      617.279    -885.803      -4.895
  O      615.837    -885.906      -5.032
  C      617.659    -885.776      -3.412
  N      619.348    -881.447      -1.237
  C      618.102    -881.955      -1.379
  N      617.743    -883.116      -1.998
  C      618.805    -883.762      -2.450
  C      620.133    -883.365      -2.384
  C      620.396    -882.145      -1.742
  N      621.667    -881.624      -1.591
  N      620.965    -884.295      -2.986
  C      620.151    -885.240      -3.414
  N      618.851    -884.955      -3.124
  O      620.657    -891.189      -3.990
  O      621.296    -890.099      -6.203
  H      615.469    -885.089      -4.626
  H      620.202    -891.771      -4.614
  H      617.288    -881.367      -0.972
  H      620.457    -886.130      -3.923
  H      616.862    -885.397      -2.760
  H      617.573    -884.910      -5.464
  H      619.011    -886.900      -5.577
  H      616.715    -888.370      -4.156
  H      618.601    -889.717      -3.192
  H      621.781    -880.761      -1.088
  H      622.450    -882.154      -1.946
  H      618.445    -889.907      -4.942
  P      618.176    -888.236      -7.682
  C      617.843    -890.430      -9.028
  O      617.242    -889.289      -8.433
  O      619.222    -889.116      -6.868
  O      618.844    -887.214      -8.566
  H      620.085    -889.147      -7.367
  H      617.070    -891.177      -9.204
  H      618.625    -890.846      -8.354
  H      618.294    -890.147      -9.969
  H      624.485    -890.037      -3.609
  H      623.902    -890.469      -5.199
  H      623.380    -891.377      -3.800

 3  4  5  6  7  8  9  10  11  12  22  25  29  30  31  32 0
 6-311+G(2d,p)
 ****
 33  36  37 0
 6-311+G(2d,p)
 ****
 1  2  13  14  15  16  17  18  19  20  21  23  24  26 0
 3-21G
 ****
 27  28  34  35  38  39  40  41  42  43  44  45  46  47  48 0
 3-21G
 ****


