%nproc=1
%NoSave
%Mem=1900MB
#P OB98/GEN NMR

erre ene a

0 1
  C      159.939    -489.070     756.887
  O      160.448    -487.951     757.616
  P      160.386    -486.457     757.030
  C      162.883    -486.008     756.607
  O      161.611    -486.182     756.007
  C      163.990    -485.652     755.594
  O      165.232    -485.307     756.283
  C      164.329    -486.770     754.583
  O      164.728    -486.103     753.377
  C      165.526    -487.442     755.249
  O      166.291    -488.236     754.349
  C      166.254    -486.228     755.824
  N      170.934    -485.496     757.738
  C      170.272    -484.861     756.741
  N      169.019    -485.101     756.314
  C      168.435    -486.056     757.049
  C      168.990    -486.785     758.088
  C      170.315    -486.476     758.434
  N      171.006    -487.139     759.417
  N      168.072    -487.690     758.583
  C      167.009    -487.546     757.841
  N      167.164    -486.563     756.908
  O      160.225    -485.384     758.073
  O      159.093    -486.466     756.065
  H      166.877    -488.796     754.883
  H      158.567    -485.664     756.229
  H      170.833    -484.084     756.235
  H      166.087    -488.144     757.927
  H      166.832    -485.713     755.041
  H      165.157    -488.103     756.047
  H      163.492    -487.447     754.396
  H      163.671    -484.749     755.067
  H      163.174    -486.934     757.151
  H      171.993    -486.912     759.505
  H      170.601    -487.958     759.843
  H      162.808    -485.198     757.370
  P      163.838    -486.199     752.051
  C      164.816    -488.410     751.197
  O      163.666    -487.749     751.712
  O      164.356    -485.368     750.912
  O      162.363    -485.737     752.485
  H      161.855    -485.476     751.709
  H      164.958    -488.143     750.138
  H      164.668    -489.500     751.273
  H      165.709    -488.147     751.766
  H      160.082    -489.963     757.459
  H      160.460    -489.156     755.956
  H      158.895    -488.929     756.700

 3  4  5  6  7  8  9  10  11  12  22  25  29  30  31  32 0
 6-311+G(2d,p)
 ****
 33  36  37 0
 6-311+G(2d,p)
 ****
 1  2  13  14  15  16  17  18  19  20  21  23  24  26 0
 3-21G
 ****
 27  28  34  35  38  39  40  41  42  43  44  45  46  47  48 0
 3-21G
 ****


