%nproc=1
%NoSave
%Mem=1900MB
#P OB98/GEN NMR

erre ene a

0 1
  C     -857.526     632.424    1974.809
  O     -857.857     633.299    1973.752
  H     -856.651     632.807    1975.325
  H     -857.309     631.440    1974.414
  H     -858.352     632.364    1975.532
  P     -859.234     633.025    1972.947
  C     -857.915     631.740    1971.095
  O     -858.985     631.708    1972.057
  C     -858.002     630.524    1970.169
  O     -859.370     630.362    1969.719
  C     -857.102     630.645    1968.934
  O     -856.548     629.360    1968.643
  C     -858.078     631.034    1967.820
  O     -857.592     630.640    1966.533
  C     -859.360     630.315    1968.273
  N     -860.556     630.964    1967.706
  C     -861.074     630.372    1966.538
  O     -860.517     629.375    1966.040
  N     -862.160     630.971    1965.942
  C     -862.622     632.083    1966.407
  N     -863.683     632.650    1965.745
  C     -862.050     632.773    1967.578
  C     -861.032     632.154    1968.184
  O     -859.282     634.202    1971.869
  O     -860.470     632.966    1973.801
  H     -856.842     631.214    1966.293
  H     -860.189     634.468    1971.683
  H     -862.459     633.716    1967.902
  H     -860.536     632.591    1969.047
  H     -859.349     629.253    1967.976
  H     -858.205     632.114    1967.817
  H     -856.287     631.372    1969.040
  H     -857.729     629.613    1970.759
  H     -864.015     632.142    1964.920
  H     -856.956     631.737    1971.619
  H     -864.075     633.526    1965.976
  H     -857.999     632.685    1970.516
  P     -855.042     629.086    1969.152
  C     -853.957     629.717    1966.874
  O     -854.050     629.986    1968.266
  O     -854.747     627.569    1968.664
  O     -854.881     629.191    1970.662
  H     -854.727     626.966    1969.432
  H     -853.261     630.395    1966.425
  H     -854.919     629.842    1966.422
  H     -853.621     628.712    1966.727

 6  7  8  9  10  11  12  13  14  15  16  26  30  31  32  33  35 0
 6-311+G(2d,p)
 ****
 37  38 0
 6-311+G(2d,p)
 ****
 1  2  3  4  5  17  18  19  20  21  22  23  24  25 0
 3-21G
 ****
 27  28  29  34  36  39  40  41  42  43  44  45  46 0
 3-21G
 ****


