%nproc=1
%NoSave
%Mem=1900MB
#P OB98/GEN NMR

erre ene a

0 1
  C     -278.686     972.598    -197.297
  O     -279.633     972.232    -198.269
  H     -279.201     973.083    -196.458
  H     -277.967     973.312    -197.719
  H     -278.154     971.723    -196.915
  P     -279.070     971.464    -199.565
  C     -278.288     972.241    -201.932
  O     -278.561     972.608    -200.578
  C     -277.666     973.414    -202.673
  O     -278.679     974.422    -202.916
  C     -276.571     974.126    -201.894
  O     -275.329     973.425    -201.969
  C     -276.532     975.481    -202.598
  O     -275.749     975.442    -203.794
  C     -278.005     975.709    -202.950
  N     -279.829     980.449    -202.442
  C     -279.295     979.793    -203.498
  N     -278.841     978.515    -203.553
  C     -279.001     977.904    -202.364
  C     -279.535     978.447    -201.196
  C     -279.957     979.786    -201.276
  N     -280.467     980.468    -200.180
  N     -279.488     977.523    -200.165
  C     -278.967     976.443    -200.707
  N     -278.655     976.625    -202.033
  O     -280.406     970.909    -200.263
  O     -278.087     970.370    -199.286
  H     -275.938     976.267    -204.279
  H     -280.565     969.989    -199.979
  H     -279.208     980.362    -204.418
  H     -278.772     975.509    -200.187
  H     -278.134     976.108    -203.957
  H     -276.104     976.252    -201.943
  H     -276.854     974.265    -200.842
  H     -277.304     973.060    -203.642
  H     -279.231     971.963    -202.422
  H     -277.610     971.372    -201.934
  H     -280.731     981.427    -200.303
  H     -280.468     980.014    -199.281
  P     -274.129     973.899    -201.020
  C     -272.142     975.584    -201.245
  O     -273.422     975.151    -201.719
  O     -273.041     972.723    -201.171
  O     -274.508     974.119    -199.587
  H     -273.093     972.122    -200.417
  H     -271.816     976.426    -201.818
  H     -271.435     974.787    -201.348
  H     -272.219     975.862    -200.215

 6  7  8  9  10  11  12  13  14  15  25  28  32  33  34  35 0
 6-311+G(2d,p)
 ****
 36  37  40 0
 6-311+G(2d,p)
 ****
 1  2  3  4  5  16  17  18  19  20  21  22  23  24 0
 3-21G
 ****
 26  27  29  30  31  38  39 41  42  43  44  45  46  47  48 0
 3-21G
 ****


