%nproc=1
%NoSave
%Mem=1900MB
#P OB98/GEN NMR

erre ene a

0 1
  C      361.586     -34.754    -541.242
  O      360.333     -34.618    -541.938
  P      358.999     -35.067    -541.162
  C      359.325     -37.633    -540.979
  O      358.689     -36.571    -541.664
  C      358.630     -38.965    -541.290
  O      357.297     -38.951    -540.770
  C      358.469     -39.234    -542.807
  O      359.661     -39.759    -543.385
  C      357.345     -40.293    -542.791
  O      357.929     -41.577    -542.523
  C      356.482     -39.832    -541.602
  N      351.412     -39.758    -541.650
  C      352.265     -40.693    -541.118
  N      351.716     -41.759    -540.492
  N      353.574     -40.597    -541.204
  C      353.994     -39.475    -541.826
  C      353.236     -38.495    -542.413
  C      351.788     -38.626    -542.346
  O      350.987     -37.875    -542.866
  N      354.028     -37.487    -542.923
  C      355.274     -37.862    -542.643
  N      355.293     -39.098    -542.010
  O      357.878     -34.185    -541.867
  O      359.018     -34.868    -539.678
  H      358.714     -41.656    -543.115
  H      357.104     -34.066    -541.251
  H      350.415     -39.864    -541.549
  H      356.153     -37.298    -542.882
  H      356.174     -40.685    -540.988
  H      356.824     -40.355    -543.739
  H      350.721     -41.804    -540.283
  H      358.091     -38.346    -543.341
  H      352.331     -42.428    -540.054
  H      359.191     -39.781    -540.833
  H      359.261     -37.463    -539.882
  H      360.368     -37.688    -541.257
  P      360.419     -38.765    -544.420
  C      358.260     -38.276    -545.790
  O      359.547     -38.863    -545.765
  O      361.770     -39.571    -544.751
  O      360.680     -37.390    -543.896
  H      362.453     -38.965    -545.034
  H      358.227     -37.339    -545.223
  H      357.518     -38.972    -545.407
  H      358.003     -38.042    -546.844
  H      362.383     -34.420    -541.873
  H      361.741     -35.781    -540.985
  H      361.565     -34.162    -540.351

 3  4  5  6  7  8  9  10  11  12  23  26  30  31  33  0
 6-311+G(2d,p)
 ****
 35  36  37  38 0
 6-311+G(2d,p)
 ****
 1  2  13  14  15  16  17  18  19  20  21  22  24  25  27  28  29 0
 3-21G
 ****
 32  34  39  40  41  42  43  44  45  46  47  48  49 0
 3-21G
 ****


