%nproc=1
%NoSave
%Mem=1900MB
#P OB98/GEN NMR

erre ene a

0 1
  C      155.603     -76.286      14.475
  O      155.665     -75.160      15.327
  H      155.046     -76.041      13.567
  H      156.620     -76.573      14.198
  H      155.127     -77.123      14.991
  P      154.265     -74.551      15.822
  C      154.492     -71.968      15.914
  O      154.602     -73.196      16.623
  C      154.765     -70.797      16.857
  O      153.651     -70.685      17.779
  C      156.057     -70.927      17.681
  O      156.914     -69.806      17.434
  C      155.591     -70.865      19.128
  O      156.452     -70.092      19.964
  C      154.201     -70.244      19.026
  N      153.587     -69.911      24.075
  C      154.252     -69.123      23.199
  N      154.290     -69.204      21.857
  C      153.519     -70.218      21.423
  C      152.763     -71.087      22.190
  C      152.831     -70.920      23.584
  N      152.201     -71.757      24.473
  N      152.107     -72.006      21.387
  C      152.495     -71.715      20.160
  N      153.363     -70.657      20.135
  O      153.812     -75.565      16.977
  O      153.224     -74.416      14.763
  H      156.526     -69.211      19.551
  H      152.878     -75.815      16.841
  H      154.841     -68.321      23.643
  H      152.221     -72.265      19.264
  H      154.241     -69.145      19.015
  H      155.545     -71.885      19.529
  H      156.595     -71.857      17.481
  H      154.784     -69.873      16.262
  H      153.479     -71.869      15.509
  H      152.396     -71.635      25.452
  H      151.726     -72.575      24.115
  H      155.202     -71.972      15.081
  P      158.028     -69.989      16.289
  C      159.977     -68.662      17.389
  O      159.003     -68.717      16.354
  O      157.195     -69.748      14.940
  O      158.697     -71.325      16.299
  H      157.616     -70.224      14.197
  H      160.544     -67.759      17.297
  H      160.632     -69.505      17.308
  H      159.488     -68.681      18.340

 6  7  8  9  10  11  12  13  14  15  25  28  32  33  34  35 0
 6-311+G(2d,p)
 ****
 36  39  40 0
 6-311+G(2d,p)
 ****
 1  2  3  4  5  16  17  18  19  20  21  22  23  24 0
 3-21G
 ****
 26  27  29  30  31  37  38  41  42  43  44  45  46  47  48 0
 3-21G
 ****


