%nproc=1
%NoSave
%Mem=1900MB
#P OB98/GEN NMR

erre ene a

0 1
  C     -814.541      46.963    -894.690
  O     -815.426      48.069    -894.430
  P     -814.913      49.166    -893.370
  C     -815.449      51.454    -894.540
  O     -814.444      50.477    -894.200
  C     -815.696      51.416    -896.040
  O     -816.131      50.089    -896.500
  C     -816.824      52.361    -896.480
  O     -816.344      53.698    -896.500
  C     -817.115      51.794    -897.880
  O     -816.148      52.246    -898.830
  C     -816.989      50.286    -897.630
  N     -821.953      50.137    -898.900
  C     -820.959      50.947    -899.270
  N     -819.670      50.929    -898.890
  C     -819.435      49.922    -898.030
  C     -820.354      49.001    -897.530
  C     -821.690      49.129    -898.000
  N     -822.693      48.323    -897.590
  N     -819.761      48.111    -896.660
  C     -818.480      48.538    -896.600
  N     -818.267      49.599    -897.420
  O     -813.523      48.549    -892.840
  O     -815.883      49.403    -892.260
  H     -816.266      53.212    -898.920
  H     -813.646      48.237    -891.910
  H     -821.235      51.708    -900.000
  H     -817.732      48.058    -896.000
  H     -816.503      49.775    -898.490
  H     -818.125      52.094    -898.240
  H     -817.681      52.268    -895.830
  H     -814.755      51.648    -896.560
  H     -815.128      52.445    -894.240
  H     -823.633      48.529    -897.910
  H     -822.536      47.621    -896.860
  H     -816.360      51.206    -893.990
  P     -816.893      54.691    -895.360
  C     -814.991      56.231    -894.570
  O     -815.615      54.976    -894.410
  O     -817.806      53.679    -894.470
  O     -817.612      55.896    -895.850
  H     -817.309      52.850    -894.270
  H     -814.160      56.286    -893.860
  H     -815.722      57.032    -894.360
  H     -814.623      56.322    -895.590
  H     -814.991      46.307    -895.406
  H     -814.361      46.429    -893.781
  H     -813.614      47.331    -895.077

 3  4  5  6  7  8  9  10  11  12  22  25  29  30  31  32 0
 6-311+G(2d,p)
 ****
 33  36  37 0
 6-311+G(2d,p)
 ****
 1  2  13  14  15  16  17  18  19  20  21  23  24  26 0
 3-21G
 ****
 27  28  34  35  38  39  40  41  42  43  44  45  46  47  48 0
 3-21G
 ****


