%nproc=1
%NoSave
%Mem=1900MB
#P OB98/GEN NMR

erre ene a

0 1
  C     -676.070    -254.636    -118.418
  O     -676.423    -255.968    -118.739
  P     -675.224    -257.024    -118.943
  C     -674.662    -257.068    -116.406
  O     -674.205    -256.793    -117.725
  C     -673.681    -257.962    -115.652
  O     -673.656    -259.265    -116.282
  C     -672.245    -257.425    -115.618
  O     -671.692    -257.746    -114.343
  C     -671.541    -258.244    -116.677
  O     -670.132    -258.308    -116.448
  C     -672.278    -259.584    -116.573
  N     -672.161    -260.380    -117.793
  C     -670.887    -260.853    -118.115
  O     -669.916    -260.535    -117.428
  N     -670.736    -261.638    -119.231
  C     -671.745    -261.835    -120.016
  N     -671.550    -262.623    -121.112
  C     -673.083    -261.249    -119.777
  C     -673.221    -260.557    -118.647
  O     -674.441    -256.433    -120.204
  O     -675.673    -258.434    -119.163
  H     -669.993    -258.618    -115.522
  H     -674.046    -257.150    -120.737
  H     -673.882    -261.416    -120.483
  H     -674.165    -260.113    -118.378
  H     -671.889    -260.172    -115.733
  H     -671.704    -257.793    -117.667
  H     -672.195    -256.347    -115.781
  H     -674.059    -258.103    -114.634
  H     -670.622    -263.000    -121.260
  H     -675.625    -257.587    -116.467
  H     -672.279    -262.832    -121.779
  H     -674.817    -256.121    -115.875
  P     -670.424    -256.900    -113.847
  C     -672.011    -255.338    -112.558
  O     -671.002    -255.431    -113.541
  O     -669.642    -256.655    -115.229
  O     -669.524    -257.501    -112.817
  H     -668.806    -256.195    -115.050
  H     -672.210    -254.286    -112.361
  H     -671.691    -255.822    -111.636
  H     -672.930    -255.808    -112.931
  H     -676.957    -254.048    -118.312
  H     -675.464    -254.229    -119.200
  H     -675.522    -254.624    -117.499

 3  4  5  6  7  8  9  10  11  12  13  21  23  27  28  29  30  32 0
 6-311+G(2d,p)
 ****
 34  35 0
 6-311+G(2d,p)
 ****
 1  2  14  15  16  17  18  19  20  22  24  25  26 0
 3-21G
 ****
 31  33  36  37  38  39  40  41  42  43  44  45  46 0
 3-21G
 ****


