%nproc=1
%NoSave
%Mem=1900MB
#P OB98/GEN NMR

erre ene a

0 1
  C       32.756     236.633    -384.662
  O       33.681     237.406    -383.928
  H       33.265     235.748    -385.051
  H       32.362     237.212    -385.500
  H       31.932     236.310    -384.013
  P       33.126     238.771    -383.289
  C       33.831     240.096    -385.407
  O       32.775     239.733    -384.528
  C       33.272     240.638    -386.719
  O       32.727     239.566    -387.527
  C       32.156     241.666    -386.552
  O       32.681     242.957    -386.307
  C       31.450     241.563    -387.899
  O       32.140     242.318    -388.916
  C       31.531     240.052    -388.187
  N       26.582     239.358    -388.881
  C       27.469     240.165    -389.561
  N       26.951     240.943    -390.538
  N       28.750     240.214    -389.305
  C       29.121     239.409    -388.279
  C       28.335     238.552    -387.539
  C       26.922     238.483    -387.859
  O       26.095     237.739    -387.339
  N       29.076     237.885    -386.600
  C       30.298     238.367    -386.740
  N       30.369     239.306    -387.737
  O       34.435     239.452    -382.661
  O       32.049     238.608    -382.271
  H       31.586     242.354    -389.715
  H       34.176     239.974    -381.879
  H       25.607     239.349    -389.137
  H       31.154     238.069    -386.152
  H       31.646     239.848    -389.259
  H       30.431     241.958    -387.855
  H       25.967     241.190    -390.558
  H       31.462     241.360    -385.758
  H       27.593     241.554    -391.027
  H       34.108     241.070    -387.280
  H       34.440     239.210    -385.618
  H       34.459     240.856    -384.925
  P       31.738     244.020    -385.561
  C       31.461     245.495    -387.691
  O       30.822     244.693    -386.704
  O       32.742     245.197    -385.161
  O       30.992     243.478    -384.379
  H       32.340     245.762    -384.472
  H       30.729     245.869    -388.375
  H       32.176     244.903    -388.223
  H       31.958     246.315    -387.217

 6  7  8  9  10  11  12  13  14  15  26  29  33  34 0
 6-311+G(2d,p)
 ****
 36  38  39  40  41 0
 6-311+G(2d,p)
 ****
 1  2  3  4  5  16  17  18  19  20  21  22  23  24  25 0
 3-21G
 ****
 27  28  30  31  32  35  37  42  43  44  45  46  47 0
 3-21G
 ****
 48  49 0
 3-21G
 ****


