%nproc=1
%NoSave
%Mem=1900MB
#P OB98/GEN NMR

erre ene a

0 1
  C      296.110    -808.364     452.748
  O      296.723    -807.213     452.156
  P      297.862    -806.448     452.997
  C      296.678    -804.204     453.603
  O      297.135    -805.482     454.047
  C      295.624    -803.649     454.568
  O      294.392    -804.394     454.490
  C      296.046    -803.693     456.031
  O      296.865    -802.584     456.371
  C      294.702    -803.575     456.728
  O      294.278    -802.207     456.746
  C      293.789    -804.410     455.806
  N      292.889    -807.375     459.805
  C      292.972    -805.997     459.712
  N      292.781    -805.302     460.869
  N      293.219    -805.354     458.608
  C      293.372    -806.170     457.541
  C      293.324    -807.542     457.503
  C      293.054    -808.244     458.735
  O      292.986    -809.465     458.885
  N      293.534    -808.020     456.231
  C      293.702    -806.931     455.490
  N      293.632    -805.786     456.255
  O      298.458    -805.426     451.917
  O      298.914    -807.346     453.552
  H      293.418    -802.171     457.210
  H      299.385    -805.221     452.136
  H      292.698    -807.824     460.682
  H      293.877    -806.925     454.428
  H      292.792    -803.973     455.720
  H      294.744    -803.913     457.764
  H      292.525    -805.730     461.743
  H      296.529    -804.655     456.275
  H      292.798    -804.293     460.812
  H      295.423    -802.599     454.278
  H      296.267    -804.280     452.588
  H      297.544    -803.536     453.517
  P      298.462    -802.805     456.388
  C      298.382    -802.849     458.998
  O      298.790    -803.493     457.799
  O      299.025    -801.316     456.546
  O      299.019    -803.484     455.186
  H      299.892    -801.238     456.108
  H      298.547    -803.523     459.835
  H      297.325    -802.576     458.952
  H      298.991    -801.939     459.157
  H      295.378    -808.763     452.077
  H      295.637    -808.084     453.666
  H      296.857    -809.105     452.943

 3  4  5  6  7  8  9  10  11  12  23  26  30  31 0
 6-311+G(2d,p)
 ****
 33  35  36  37  38 0
 6-311+G(2d,p)
 ****
 1  2  13  14  15  16  17  18  19  20  21  22  24  25 0
 3-21G
 ****
 27  28  29  32  34  39  40  41  42  43  44  45  46  47  48  49 0
 3-21G
 ****


