%nproc=1
%NoSave
%Mem=1900MB
#P OB98/GEN NMR

erre ene a

0 1
  C       84.452      17.615     -64.645
  O       85.113      16.499     -64.085
  P       85.733      15.353     -65.012
  C       88.112      16.234     -65.369
  O       86.838      16.023     -65.960
  C       89.190      15.398     -66.056
  O       90.490      15.747     -65.511
  C       89.005      13.883     -65.896
  O       89.394      13.276     -67.133
  C       89.990      13.532     -64.798
  O       90.358      12.160     -64.818
  C       91.122      14.518     -65.103
  N       92.002      14.725     -63.964
  C       93.171      13.964     -63.922
  O       93.357      13.070     -64.748
  N       94.087      14.226     -62.935
  C       93.775      15.038     -61.972
  N       94.737      15.321     -61.053
  C       92.446      15.669     -61.855
  C       91.633      15.507     -62.895
  O       84.732      14.509     -65.729
  O       86.611      14.466     -64.008
  H       86.344      13.530     -64.092
  H       89.544      11.614     -64.836
  H       92.189      16.235     -60.973
  H       90.645      15.954     -62.917
  H       91.721      14.165     -65.953
  H       89.544      13.751     -63.821
  H       87.973      13.604     -65.664
  H       89.202      15.665     -67.120
  H       95.648      14.902     -61.188
  H       88.052      15.944     -64.318
  H       94.700      16.158     -60.472
  H       88.368      17.299     -65.406
  P       88.786      11.834     -67.498
  C       87.002      12.299     -69.321
  O       87.267      12.043     -67.959
  O       88.606      11.183     -66.039
  O       89.637      10.947     -68.346
  H       88.629      10.212     -66.122
  H       85.930      12.481     -69.440
  H       87.278      11.436     -69.932
  H       87.547      13.184     -69.661
  H       84.114      18.260     -63.861
  H       83.613      17.281     -65.219
  H       85.129      18.149     -65.279

 3  4  5  6  7  8  9  10  11  12  13  24  27  28  29  30  32 0
 6-311+G(2d,p)
 ****
 34  35 0
 6-311+G(2d,p)
 ****
 1  2  14  15  16  17  18  19  20  21  22  23  25  26 0
 3-21G
 ****
 31  33  36  37  38  39  40  41  42  43  44  45  46 0
 3-21G
 ****


