%nproc=1
%NoSave
%Mem=1900MB
#P OB98/GEN NMR

erre ene a

0 1
  C       35.014    -212.221    -279.441
  O       35.113    -213.081    -280.562
  H       35.818    -212.464    -278.740
  H       34.052    -212.366    -278.943
  H       35.120    -211.178    -279.754
  P       34.040    -212.854    -281.732
  C       35.482    -211.666    -283.553
  O       34.875    -212.870    -283.105
  C       36.941    -211.926    -283.950
  O       37.613    -212.603    -282.843
  C       37.090    -212.832    -285.186
  O       38.301    -212.465    -285.873
  C       37.274    -214.200    -284.548
  O       37.801    -215.114    -285.478
  C       38.173    -213.819    -283.375
  N       41.312    -216.612    -280.478
  C       41.545    -215.605    -281.352
  N       40.651    -214.905    -282.080
  C       39.398    -215.316    -281.814
  C       39.005    -216.330    -280.955
  C       40.028    -217.001    -280.267
  N       39.802    -218.043    -279.395
  N       37.626    -216.479    -280.975
  C       37.201    -215.567    -281.825
  N       38.233    -214.842    -282.356
  O       33.626    -211.319    -281.558
  O       32.857    -213.763    -281.707
  H       38.693    -214.841    -285.773
  H       32.835    -211.251    -280.986
  H       42.588    -215.324    -281.486
  H       36.168    -215.391    -282.103
  H       39.205    -213.606    -283.693
  H       36.317    -214.600    -284.197
  H       36.246    -212.771    -285.875
  H       37.454    -210.965    -284.094
  H       35.442    -210.931    -282.744
  H       34.936    -211.284    -284.419
  H       40.597    -218.488    -278.969
  H       38.857    -218.367    -279.255
  P       38.202    -211.658    -287.260
  C       38.525    -209.089    -286.937
  O       39.124    -210.346    -287.214
  O       36.722    -211.037    -287.176
  O       38.342    -212.486    -288.499
  H       36.263    -211.169    -288.026
  H       39.276    -208.327    -286.944
  H       38.058    -209.121    -285.975
  H       37.790    -208.872    -287.683

 6  7  8  9  10  11  12  13  14  15  25  28  32  33  34  35 0
 6-311+G(2d,p)
 ****
 36  37  40 0
 6-311+G(2d,p)
 ****
 1  2  3  4  5  16  17  18  19  20  21  22  23  24 0
 3-21G
 ****
 26  27  29  30  31  38  39 41  42  43  44  45  46  47  48 0
 3-21G
 ****


