%nproc=1
%NoSave
%Mem=1900MB
#P OB98/GEN NMR

erre ene a

0 1
  C      123.239     195.598    -105.156
  O      122.896     196.352    -106.302
  H      122.345     195.474    -104.538
  H      124.002     196.122    -104.574
  H      123.605     194.609    -105.449
  P      124.086     196.666    -107.333
  C      125.162     199.024    -107.210
  O      125.032     197.743    -106.608
  C      123.800     199.705    -107.307
  O      123.195     199.829    -106.001
  C      123.839     201.108    -107.901
  O      123.859     201.066    -109.319
  C      122.552     201.703    -107.350
  O      121.405     201.292    -108.122
  C      122.502     201.104    -105.938
  N      121.846     205.239    -103.108
  C      120.995     204.630    -104.010
  N      119.811     205.248    -104.228
  N      121.278     203.524    -104.645
  C      122.508     203.040    -104.353
  C      123.436     203.542    -103.467
  C      123.095     204.750    -102.747
  O      123.777     205.301    -101.889
  N      124.561     202.757    -103.433
  C      124.331     201.809    -104.319
  N      123.104     201.946    -104.917
  O      123.368     197.522    -108.483
  O      124.781     195.470    -107.892
  H      121.425     201.734    -108.987
  H      123.818     197.354    -109.332
  H      121.562     206.079    -102.637
  H      125.015     201.007    -104.561
  H      121.475     200.900    -105.612
  H      122.566     202.795    -107.372
  H      119.684     206.232    -104.037
  H      124.696     201.673    -107.510
  H      119.189     204.819    -104.904
  H      123.147     199.054    -107.906
  H      125.575     198.903    -108.217
  H      125.846     199.636    -106.614
  P      124.090     202.447    -110.105
  C      122.081     203.734    -111.148
  O      122.726     203.282    -109.964
  O      124.089     202.002    -111.642
  O      125.336     203.176    -109.731
  H      124.485     202.704    -112.193
  H      121.192     204.270    -110.888
  H      121.824     202.893    -111.758
  H      122.741     204.379    -111.690

 6  7  8  9  10  11  12  13  14  15  26  29  33  34 0
 6-311+G(2d,p)
 ****
 36  38  39  40  41 0
 6-311+G(2d,p)
 ****
 1  2  3  4  5  16  17  18  19  20  21  22  23  24  25 0
 3-21G
 ****
 27  28  30  31  32  35  37  42  43  44  45  46  47 0
 3-21G
 ****
 48  49 0
 3-21G
 ****


