%nproc=1
%NoSave
%Mem=1900MB
#P OB98/GEN NMR

erre ene a

0 1
  C       47.575     120.235    -466.892
  O       48.945     120.348    -466.542
  P       50.046     120.706    -467.651
  C       51.320     122.380    -466.171
  O       50.533     122.207    -467.345
  C       52.137     123.665    -466.257
  O       52.994     123.603    -467.419
  C       51.278     124.921    -466.385
  O       51.902     125.994    -465.667
  C       51.324     125.255    -467.872
  O       51.100     126.654    -468.101
  C       52.719     124.751    -468.249
  N       55.619     124.796    -472.483
  C       55.852     125.254    -471.236
  N       55.026     125.230    -470.164
  C       53.875     124.606    -470.469
  C       53.503     124.087    -471.701
  C       54.435     124.199    -472.743
  N       54.207     123.714    -474.013
  N       52.230     123.548    -471.633
  C       51.853     123.727    -470.387
  N       52.817     124.355    -469.639
  O       49.624     120.472    -469.060
  O       51.320     119.825    -467.257
  H       51.171     126.802    -469.067
  H       51.762     119.490    -468.059
  H       56.828     125.703    -471.074
  H       50.895     123.432    -469.979
  H       53.493     125.505    -468.045
  H       50.539     124.700    -468.394
  H       50.250     124.778    -466.030
  H       52.780     123.733    -465.371
  H       52.004     121.528    -466.082
  H       54.973     123.733    -474.660
  H       53.402     123.118    -474.161
  H       50.666     122.390    -465.290
  P       50.911     126.952    -464.840
  C       51.632     126.035    -462.513
  O       50.617     126.158    -463.481
  O       49.737     127.382    -465.651
  O       51.907     128.140    -464.430
  H       52.840     127.835    -464.404
  H       51.256     125.434    -461.680
  H       51.913     127.025    -462.133
  H       52.514     125.539    -462.938
  H       47.003     119.992    -466.021
  H       47.456     119.463    -467.623
  H       47.232     121.165    -467.296

 3  4  5  6  7  8  9  10  11  12  22  25  29  30  31  32 0
 6-311+G(2d,p)
 ****
 33  36  37 0
 6-311+G(2d,p)
 ****
 1  2  13  14  15  16  17  18  19  20  21  23  24  26 0
 3-21G
 ****
 27  28  34  35  38  39  40  41  42  43  44  45  46  47  48 0
 3-21G
 ****


