%nproc=1
%NoSave
%Mem=1900MB
#P OB98/GEN NMR

erre ene a

0 1
  C      266.104      76.116     162.915
  O      266.530      75.780     164.217
  H      266.391      77.150     162.710
  H      265.016      76.035     162.853
  H      266.563      75.469     162.164
  P      266.656      74.236     164.610
  C      269.059      74.012     163.695
  O      267.716      73.551     163.617
  C      270.044      72.980     163.148
  O      270.204      71.908     164.102
  C      269.561      72.341     161.843
  O      269.911      73.059     160.673
  C      270.255      70.982     161.882
  O      271.564      71.047     161.292
  C      270.357      70.678     163.381
  N      268.742      65.828     163.296
  C      269.719      66.430     162.525
  N      270.305      65.645     161.596
  N      270.064      67.684     162.652
  C      269.321      68.365     163.553
  C      268.315      67.882     164.359
  C      267.989      66.475     164.266
  O      267.145      65.891     164.936
  N      267.757      68.879     165.123
  C      268.366      69.973     164.712
  N      269.377      69.701     163.821
  O      265.264      73.610     164.114
  O      266.869      73.957     166.067
  H      272.020      70.203     161.473
  H      265.014      72.869     164.694
  H      268.540      64.852     163.174
  H      268.148      70.977     165.059
  H      271.344      70.276     163.641
  H      269.691      70.240     161.313
  H      270.019      64.701     161.398
  H      268.481      72.172     161.873
  H      270.888      66.093     160.886
  H      271.028      73.449     163.025
  H      269.262      74.201     164.750
  H      269.166      74.962     163.165
  P      269.085      72.872     159.318
  C      267.077      74.425     159.991
  O      267.544      73.144     159.626
  O      269.140      71.292     159.075
  O      269.597      73.638     158.143
  H      269.834      71.067     158.428
  H      266.020      74.387     160.151
  H      267.294      75.120     159.207
  H      267.563      74.739     160.891

 6  7  8  9  10  11  12  13  14  15  26  29  33  34 0
 6-311+G(2d,p)
 ****
 36  38  39  40  41 0
 6-311+G(2d,p)
 ****
 1  2  3  4  5  16  17  18  19  20  21  22  23  24  25 0
 3-21G
 ****
 27  28  30  31  32  35  37  42  43  44  45  46  47 0
 3-21G
 ****
 48  49 0
 3-21G
 ****


