%nproc=1
%NoSave
%Mem=1900MB
#P OB98/GEN NMR

erre ene a

0 1
  C     -785.971     568.007    -598.129
  O     -786.459     568.599    -599.325
  H     -785.480     568.775    -597.531
  H     -785.240     567.230    -598.371
  H     -786.794     567.580    -597.552
  P     -787.359     567.679    -600.270
  C     -789.623     567.998    -598.973
  O     -788.867     568.220    -600.160
  C     -790.485     569.211    -598.661
  O     -789.673     570.387    -598.433
  C     -791.405     569.630    -599.804
  O     -792.471     568.726    -599.996
  C     -791.832     571.004    -599.332
  O     -792.860     570.915    -598.325
  C     -790.515     571.540    -598.715
  N     -789.839     572.503    -599.582
  C     -790.325     573.813    -599.518
  O     -791.262     574.103    -598.770
  N     -789.754     574.760    -600.345
  C     -788.780     574.432    -601.128
  N     -788.269     575.410    -601.925
  C     -788.223     573.061    -601.197
  C     -788.793     572.151    -600.403
  O     -787.421     566.294    -599.467
  O     -786.891     567.548    -601.681
  H     -793.704     570.779    -598.808
  H     -787.711     566.394    -598.546
  H     -787.398     572.841    -601.859
  H     -788.450     571.134    -600.400
  H     -790.712     572.025    -597.747
  H     -792.235     571.611    -600.140
  H     -790.820     569.759    -600.724
  H     -791.054     569.006    -597.752
  H     -788.693     576.332    -601.854
  H     -788.956     567.763    -598.124
  H     -787.534     575.262    -602.596
  H     -790.254     567.114    -599.137
  P     -793.521     568.945    -601.199
  C     -793.065     566.742    -602.454
  O     -793.997     567.476    -601.663
  O     -793.029     569.816    -602.306
  O     -794.822     569.502    -600.447
  H     -795.189     568.899    -599.776
  H     -793.482     565.789    -602.704
  H     -792.160     566.602    -601.901
  H     -792.854     567.285    -603.352

 6  7  8  9  10  11  12  13  14  15  16  26  30  31  32  33  35 0
 6-311+G(2d,p)
 ****
 37  38 0
 6-311+G(2d,p)
 ****
 1  2  3  4  5  17  18  19  20  21  22  23  24  25 0
 3-21G
 ****
 27  28  29  34  36  39  40  41  42  43  44  45  46 0
 3-21G
 ****


