%nproc=1
%NoSave
%Mem=1900MB
#P OB98/GEN NMR

erre ene a

0 1
  C     -545.602    -716.183     403.832
  O     -545.051    -714.861     403.975
  P     -546.005    -713.660     404.444
  C     -544.892    -713.400     406.795
  O     -545.244    -712.798     405.559
  C     -543.606    -712.773     407.340
  O     -542.450    -713.326     406.676
  C     -543.502    -711.270     407.130
  O     -544.302    -710.550     408.053
  C     -542.006    -711.044     407.321
  O     -541.674    -710.948     408.721
  C     -541.408    -712.323     406.712
  N     -540.832    -712.105     405.389
  C     -539.446    -712.117     405.306
  O     -538.716    -712.243     406.296
  N     -538.917    -711.940     404.063
  C     -539.620    -711.687     402.917
  O     -539.087    -711.514     401.827
  C     -541.083    -711.603     403.076
  C     -541.608    -711.809     404.292
  O     -547.111    -714.430     405.316
  O     -546.658    -712.881     403.343
  H     -540.759    -710.606     408.762
  H     -547.957    -713.936     405.293
  H     -537.908    -711.973     403.973
  H     -541.680    -711.380     402.202
  H     -542.688    -711.749     404.422
  H     -540.634    -712.730     407.369
  H     -541.660    -710.127     406.846
  H     -543.775    -711.015     406.103
  H     -543.530    -713.020     408.411
  H     -544.731    -714.471     406.643
  H     -545.715    -713.266     407.506
  P     -544.769    -709.076     407.611
  C     -547.318    -709.613     407.818
  O     -546.206    -708.871     408.283
  O     -545.061    -709.305     406.051
  O     -543.744    -708.025     407.904
  H     -545.405    -710.197     405.874
  H     -547.025    -710.611     407.485
  H     -547.799    -709.080     406.997
  H     -548.041    -709.709     408.644
  H     -544.834    -716.857     403.515
  H     -546.385    -716.166     403.103
  H     -545.996    -716.509     404.772

 3  4  5  6  7  8  9  10  11  12  13  23  28  29  30  31  32 0
 6-311+G(2d,p)
 ****
 33  34 0
 6-311+G(2d,p)
 ****
 1  2  14  15  16  17  18  19  20  21  22  24  25  26 0
 3-21G
 ****
 27  35  36  37  38  39  40  41  42  43  44  45 0
 3-21G
 ****


