%nproc=1
%NoSave
%Mem=1900MB
#P OB98/GEN NMR

erre ene a

0 1
  C      367.284    -958.102     886.898
  O      365.906    -957.841     887.117
  H      367.396    -959.137     886.582
  H      367.845    -957.952     887.831
  H      367.677    -957.453     886.115
  P      365.437    -956.345     887.436
  C      364.410    -955.907     885.116
  O      364.167    -956.041     886.498
  C      363.124    -955.514     884.385
  O      362.240    -956.670     884.256
  C      362.296    -954.466     885.129
  O      362.857    -953.173     884.992
  C      360.933    -954.656     884.462
  O      360.872    -953.948     883.218
  C      360.891    -956.203     884.228
  N      360.061    -956.865     885.233
  C      358.791    -957.221     884.829
  O      358.333    -957.004     883.704
  N      357.993    -957.804     885.784
  C      358.329    -957.916     887.133
  O      357.517    -958.207     887.987
  C      359.723    -957.589     887.471
  C      360.500    -957.078     886.526
  O      366.517    -955.310     887.388
  O      364.789    -956.444     888.894
  H      365.428    -956.114     889.544
  H      360.057    -954.226     882.771
  H      357.053    -958.007     885.523
  H      360.033    -957.732     888.483
  H      361.543    -956.790     886.763
  H      360.484    -956.409     883.225
  H      360.118    -954.279     885.084
  H      362.211    -954.745     886.188
  H      363.372    -955.167     883.370
  H      364.772    -956.869     884.719
  H      365.191    -955.151     884.945
  P      362.334    -951.981     885.961
  C      363.798    -952.322     888.036
  O      363.551    -951.516     886.882
  O      361.055    -952.251     886.683
  O      362.172    -950.739     884.938
  H      361.295    -950.345     885.065
  H      364.630    -951.923     888.578
  H      364.018    -953.324     887.731
  H      362.931    -952.323     888.663

 6  7  8  9  10  11  12  13  14  15  16  27  31  32  33  34  35 0
 6-311+G(2d,p)
 ****
 36  37 0
 6-311+G(2d,p)
 ****
 1  2  3  4  5  17  18  19  20  21  22  23  24  25 0
 3-21G
 ****
 26  28  29  30  38  39  40  41  42  43  44  45 0
 3-21G
 ****


