%nproc=1
%NoSave
%Mem=1900MB
#P OB98/GEN NMR

erre ene a

0 1
  C       46.442    -726.434      53.011
  O       47.434    -726.027      53.933
  H       46.935    -726.792      52.103
  H       45.803    -725.586      52.754
  H       45.839    -727.245      53.427
  P       46.932    -725.658      55.413
  C       47.830    -723.264      54.962
  O       46.765    -724.059      55.455
  C       47.411    -721.795      54.912
  O       46.448    -721.588      53.853
  C       46.757    -721.284      56.192
  O       47.725    -720.913      57.167
  C       46.016    -720.074      55.659
  O       46.941    -718.986      55.456
  C       45.496    -720.588      54.309
  N       40.546    -719.801      53.546
  C       41.621    -718.940      53.386
  N       41.328    -717.686      52.974
  N       42.858    -719.273      53.618
  C       43.000    -720.549      54.033
  C       42.022    -721.501      54.229
  C       40.652    -721.124      53.961
  O       39.666    -721.850      54.063
  N       42.547    -722.690      54.651
  C       43.845    -722.462      54.725
  N       44.169    -721.176      54.373
  O       48.232    -725.911      56.318
  O       45.766    -726.444      55.907
  H       46.482    -718.330      54.906
  H       47.947    -726.265      57.185
  H       39.603    -719.490      53.369
  H       44.585    -723.189      55.036
  H       45.461    -719.797      53.545
  H       45.246    -719.707      56.345
  H       40.387    -717.352      52.826
  H       46.035    -722.007      56.591
  H       42.094    -717.053      52.821
  H       48.299    -721.201      54.671
  H       48.101    -723.599      53.956
  H       48.695    -723.387      55.623
  P       47.184    -720.530      58.632
  C       48.401    -718.264      58.255
  O       47.221    -718.926      58.702
  O       48.399    -720.963      59.581
  O       45.901    -721.180      59.028
  H       48.074    -721.127      60.482
  H       48.279    -717.206      58.361
  H       48.575    -718.501      57.226
  H       49.235    -718.587      58.842

 6  7  8  9  10  11  12  13  14  15  26  29  33  34 0
 6-311+G(2d,p)
 ****
 36  38  39  40  41 0
 6-311+G(2d,p)
 ****
 1  2  3  4  5  16  17  18  19  20  21  22  23  24  25 0
 3-21G
 ****
 27  28  30  31  32  35  37  42  43  44  45  46  47 0
 3-21G
 ****
 48  49 0
 3-21G
 ****


