%nproc=1
%NoSave
%Mem=1900MB
#P OB98/GEN NMR

erre ene a

0 1
  C      135.858    -128.580     -25.525
  O      135.095    -129.772     -25.534
  H      136.772    -128.751     -24.946
  H      135.293    -127.765     -25.060
  H      136.133    -128.306     -26.548
  P      133.690    -129.717     -26.306
  C      132.732    -127.814     -24.855
  O      133.202    -128.197     -26.141
  C      132.347    -126.331     -24.842
  O      133.536    -125.540     -25.100
  C      131.305    -125.967     -25.908
  O      130.409    -124.994     -25.365
  C      132.129    -125.325     -27.009
  O      131.380    -124.422     -27.813
  C      133.266    -124.671     -26.216
  N      137.008    -121.419     -27.427
  C      136.034    -121.374     -26.495
  N      135.086    -122.291     -26.225
  C      135.239    -123.374     -27.012
  C      136.181    -123.573     -28.007
  C      137.102    -122.527     -28.216
  N      138.082    -122.556     -29.179
  N      135.991    -124.797     -28.627
  C      134.953    -125.337     -27.997
  N      134.458    -124.504     -27.025
  O      132.693    -130.753     -25.901
  O      134.152    -129.774     -27.836
  H      131.964    -124.077     -28.523
  H      134.914    -129.186     -28.000
  H      136.010    -120.467     -25.886
  H      134.525    -126.306     -28.222
  H      132.989    -123.680     -25.837
  H      132.528    -126.112     -27.672
  H      130.747    -126.829     -26.266
  H      131.999    -126.065     -23.842
  H      133.512    -127.995     -24.097
  H      138.707    -121.774     -29.248
  H      138.176    -123.381     -29.759
  H      131.865    -128.434     -24.622
  P      129.000    -125.505     -24.776
  C      127.954    -125.695     -27.141
  O      128.248    -126.362     -25.910
  O      128.170    -124.468     -24.101
  O      129.458    -126.641     -23.742
  H      128.869    -126.605     -22.956
  H      127.457    -126.372     -27.804
  H      128.865    -125.359     -27.591
  H      127.320    -124.854     -26.949

 6  7  8  9  10  11  12  13  14  15  25  28  32  33  34  35 0
 6-311+G(2d,p)
 ****
 36  39  40 0
 6-311+G(2d,p)
 ****
 1  2  3  4  5  16  17  18  19  20  21  22  23  24 0
 3-21G
 ****
 26  27  29  30  31  37  38  41  42  43  44  45  46  47 0
 3-21G
 ****
 48 0
 3-21G
 ****


