%nproc=1
%NoSave
%Mem=1900MB
#P OB98/GEN NMR

erre ene a

0 1
  C     -482.418    -133.590    -403.069
  O     -481.014    -133.523    -403.234
  P     -480.442    -133.407    -404.724
  C     -480.411    -130.799    -404.791
  O     -480.943    -132.006    -405.322
  C     -479.365    -130.230    -405.755
  O     -479.908    -130.144    -407.087
  C     -478.918    -128.818    -405.396
  O     -477.973    -128.823    -404.335
  C     -478.340    -128.335    -406.722
  O     -476.987    -128.784    -406.886
  C     -479.271    -129.022    -407.743
  N     -480.249    -128.103    -408.325
  C     -479.795    -127.319    -409.379
  O     -478.634    -127.369    -409.800
  N     -480.705    -126.445    -409.909
  C     -481.979    -126.239    -409.465
  O     -482.728    -125.401    -409.946
  C     -482.396    -127.075    -408.326
  C     -481.523    -127.950    -407.808
  O     -481.286    -134.495    -405.546
  O     -478.975    -133.641    -404.849
  H     -476.992    -129.745    -406.720
  H     -480.722    -134.906    -406.226
  H     -480.407    -125.885    -410.689
  H     -483.398    -126.942    -407.940
  H     -481.801    -128.564    -406.959
  H     -478.678    -129.451    -408.559
  H     -478.330    -127.241    -406.794
  H     -479.792    -128.198    -405.141
  H     -478.509    -130.915    -405.776
  H     -479.948    -131.003    -403.822
  H     -481.228    -130.083    -404.641
  P     -477.717    -127.428    -403.587
  C     -479.110    -128.164    -401.499
  O     -478.945    -127.262    -402.573
  O     -478.004    -126.394    -404.775
  O     -476.353    -127.334    -402.986
  H     -478.689    -126.718    -405.388
  H     -478.148    -128.482    -401.091
  H     -479.666    -129.044    -401.846
  H     -479.682    -127.668    -400.713
  H     -482.652    -133.664    -402.027
  H     -482.797    -134.449    -403.582
  H     -482.867    -132.707    -403.473

 3  4  5  6  7  8  9  10  11  12  13  23  28  29  30  31  32 0
 6-311+G(2d,p)
 ****
 33  34 0
 6-311+G(2d,p)
 ****
 1  2  14  15  16  17  18  19  20  21  22  24  25  26 0
 3-21G
 ****
 27  35  36  37  38  39  40  41  42  43  44  45 0
 3-21G
 ****


