%nproc=1
%NoSave
%Mem=1900MB
#P OB98/GEN NMR

erre ene a

0 1
  C        5.421     146.260    -160.503
  O        6.600     146.326    -159.727
  H        4.619     145.790    -159.930
  H        5.116     147.276    -160.768
  H        5.604     145.695    -161.421
  P        7.197     144.934    -159.199
  C        6.514     143.162    -157.432
  O        6.221     144.419    -158.029
  C        5.526     142.880    -156.304
  O        5.666     143.920    -155.302
  C        4.052     142.832    -156.739
  O        3.476     141.565    -156.399
  C        3.375     143.907    -155.904
  O        2.090     143.520    -155.423
  C        4.357     144.140    -154.763
  N        2.996     146.852    -150.669
  C        3.375     145.562    -150.800
  N        3.828     144.927    -151.900
  C        3.899     145.776    -152.941
  C        3.571     147.120    -152.955
  C        3.082     147.658    -151.753
  N        2.644     148.959    -151.634
  N        3.768     147.660    -154.213
  C        4.165     146.646    -154.956
  N        4.239     145.485    -154.235
  O        8.522     145.376    -158.415
  O        7.494     143.928    -160.260
  H        1.553     143.294    -156.207
  H        9.269     144.813    -158.691
  H        3.296     144.955    -149.903
  H        4.364     146.686    -156.019
  H        4.207     143.433    -153.938
  H        3.255     144.809    -156.518
  H        3.921     143.022    -157.810
  H        5.812     141.933    -155.826
  H        7.529     143.179    -157.020
  H        2.200     149.226    -150.768
  H        2.602     149.532    -152.463
  H        6.463     142.383    -158.199
  P        3.631     140.387    -157.485
  C        2.041     139.129    -159.118
  O        2.188     140.159    -158.150
  O        3.828     139.086    -156.574
  O        4.763     140.585    -158.435
  H        4.335     138.410    -157.064
  H        1.028     139.105    -159.463
  H        2.290     138.187    -158.677
  H        2.694     139.320    -159.944

 6  7  8  9  10  11  12  13  14  15  25  28  32  33  34  35 0
 6-311+G(2d,p)
 ****
 36  39  40 0
 6-311+G(2d,p)
 ****
 1  2  3  4  5  16  17  18  19  20  21  22  23  24 0
 3-21G
 ****
 26  27  29  30  31  37  38  41  42  43  44  45  46  47  48 0
 3-21G
 ****


