%nproc=1
%NoSave
%Mem=1900MB
#P OB98/GEN NMR

erre ene a

0 1
  C      694.250     251.068    -977.076
  O      693.554     250.259    -978.024
  P      691.956     250.390    -978.036
  C      691.257     250.117    -980.518
  O      691.384     249.501    -979.247
  C      690.739     249.123    -981.546
  O      691.705     248.107    -981.881
  C      689.488     248.361    -981.089
  O      688.343     249.183    -981.254
  C      689.505     247.151    -982.018
  O      688.890     247.458    -983.291
  C      691.005     246.880    -982.192
  N      693.221     242.317    -982.292
  C      692.682     243.057    -983.326
  N      692.786     242.534    -984.559
  N      692.119     244.233    -983.157
  C      692.104     244.627    -981.866
  C      692.620     243.995    -980.763
  C      693.237     242.704    -980.953
  O      693.742     242.014    -980.076
  N      692.457     244.754    -979.625
  C      691.727     245.780    -980.022
  N      691.543     245.794    -981.388
  O      691.715     251.903    -978.519
  O      691.327     250.138    -976.701
  H      688.983     246.682    -983.882
  H      691.372     252.440    -977.781
  H      693.634     241.416    -982.472
  H      691.351     246.555    -979.381
  H      691.249     246.628    -983.241
  H      688.937     246.325    -981.600
  H      693.203     241.640    -984.768
  H      689.610     248.051    -980.055
  H      692.405     243.071    -985.338
  H      690.515     249.679    -982.470
  H      692.222     250.511    -980.846
  H      690.578     250.974    -980.421
  P      687.382     249.387    -979.989
  C      687.042     251.843    -980.750
  O      686.447     250.651    -980.290
  O      688.387     249.912    -978.848
  O      686.676     248.160    -979.544
  H      688.214     249.455    -978.003
  H      686.325     252.377    -981.377
  H      687.939     251.644    -981.337
  H      687.290     252.477    -979.895
  H      695.302     250.894    -977.163
  H      693.928     250.816    -976.087
  H      694.042     252.100    -977.267

 3  4  5  6  7  8  9  10  11  12  23  26  30  31 0
 6-311+G(2d,p)
 ****
 33  35  36  37  38 0
 6-311+G(2d,p)
 ****
 1  2  13  14  15  16  17  18  19  20  21  22  24  25 0
 3-21G
 ****
 27  28  29  32  34  39  40  41  42  43  44  45  46  47  48  49 0
 3-21G
 ****


