%nproc=1
%NoSave
%Mem=1900MB
#P OB98/GEN NMR

erre ene a

0 1
  C      114.183      21.908     128.522
  O      114.710      21.508     129.771
  H      114.233      22.997     128.451
  H      113.138      21.596     128.434
  H      114.769      21.472     127.709
  P      114.627      19.940     130.110
  C      112.681      20.185     131.831
  O      113.096      19.733     130.551
  C      111.835      19.111     132.507
  O      111.544      19.476     133.873
  C      110.479      18.881     131.849
  O      110.561      18.089     130.676
  C      109.752      18.160     132.968
  O      110.207      16.796     133.040
  C      110.222      18.967     134.199
  N      109.319      20.066     134.545
  C      108.202      19.740     135.323
  O      108.003      18.580     135.678
  N      107.313      20.735     135.654
  C      107.525      21.951     135.255
  N      106.606      22.892     135.601
  C      108.697      22.340     134.450
  C      109.541      21.362     134.134
  O      115.410      19.813     131.501
  O      115.108      19.013     129.046
  H      111.160      16.805     132.837
  H      115.307      18.899     131.860
  H      108.825      23.365     134.131
  H      110.423      21.574     133.541
  H      110.332      18.317     135.076
  H      108.670      18.131     132.828
  H      109.962      19.826     131.648
  H      112.425      18.184     132.536
  H      105.782      22.584     136.099
  H      112.096      21.101     131.701
  H      106.591      23.816     135.188
  H      113.554      20.403     132.453
  P      110.047      18.740     129.300
  C      107.971      17.182     129.297
  O      108.460      18.514     129.238
  O      110.606      17.731     128.194
  O      110.503      20.146     129.059
  H      110.914      18.211     127.402
  H      106.902      17.192     129.245
  H      108.279      16.729     130.216
  H      108.363      16.621     128.474

 6  7  8  9  10  11  12  13  14  15  16  26  30  31  32  33  35 0
 6-311+G(2d,p)
 ****
 37  38 0
 6-311+G(2d,p)
 ****
 1  2  3  4  5  17  18  19  20  21  22  23  24  25 0
 3-21G
 ****
 27  28  29  34  36  39  40  41  42  43  44  45  46 0
 3-21G
 ****


