%nproc=1
%NoSave
%Mem=1900MB
#P OB98/GEN NMR

erre ene a

0 1
  C      -85.831     -88.123    -319.852
  O      -86.001     -86.950    -319.079
  H      -86.810     -88.455    -320.208
  H      -85.390     -88.915    -319.240
  H      -85.190     -87.918    -320.713
  P      -84.676     -86.339    -318.413
  C      -84.313     -85.178    -320.702
  O      -83.724     -85.895    -319.626
  C      -83.258     -84.356    -321.438
  O      -83.781     -83.852    -322.684
  C      -82.746     -83.151    -320.657
  O      -81.720     -83.529    -319.754
  C      -82.237     -82.264    -321.787
  O      -80.933     -82.693    -322.234
  C      -83.290     -82.497    -322.877
  N      -84.656     -77.716    -323.756
  C      -83.411     -78.308    -323.798
  N      -82.363     -77.503    -324.091
  N      -83.201     -79.578    -323.563
  C      -84.325     -80.250    -323.224
  C      -85.616     -79.778    -323.145
  C      -85.841     -78.383    -323.462
  O      -86.928     -77.817    -323.524
  N      -86.490     -80.773    -322.790
  C      -85.726     -81.835    -322.621
  N      -84.401     -81.566    -322.870
  O      -83.932     -87.625    -317.814
  O      -84.904     -85.311    -317.359
  H      -80.674     -82.171    -323.014
  H      -83.520     -87.383    -316.964
  H      -84.760     -76.742    -323.975
  H      -86.078     -82.815    -322.334
  H      -82.853     -82.451    -323.883
  H      -82.125     -81.227    -321.464
  H      -82.418     -76.499    -323.993
  H      -83.565     -82.639    -320.137
  H      -81.445     -77.925    -324.049
  H      -82.430     -85.031    -321.687
  H      -85.084     -84.508    -320.302
  H      -84.779     -85.885    -321.394
  P      -81.465     -82.609    -318.468
  C      -81.948     -84.461    -316.710
  O      -82.333     -83.205    -317.252
  O      -82.228     -81.253    -318.842
  O      -80.028     -82.348    -318.161
  H      -81.578     -80.562    -319.078
  H      -82.613     -84.725    -315.915
  H      -80.949     -84.395    -316.332
  H      -81.992     -85.208    -317.475

 6  7  8  9  10  11  12  13  14  15  26  29  33  34 0
 6-311+G(2d,p)
 ****
 36  38  39  40  41 0
 6-311+G(2d,p)
 ****
 1  2  3  4  5  16  17  18  19  20  21  22  23  24  25 0
 3-21G
 ****
 27  28  30  31  32  35  37  42  43  44  45  46  47 0
 3-21G
 ****
 48  49 0
 3-21G
 ****


