%nproc=1
%NoSave
%Mem=1900MB
#P OB98/GEN NMR

erre ene a

0 1
  C       44.112     -18.435      28.007
  O       43.086     -19.383      27.794
  H       44.240     -17.845      27.096
  H       45.053     -18.944      28.231
  H       43.846     -17.765      28.829
  P       42.710     -20.329      29.034
  C       44.682     -21.988      28.686
  O       43.274     -21.787      28.673
  C       45.085     -22.890      27.523
  O       46.523     -23.036      27.505
  C       44.530     -24.307      27.609
  O       43.178     -24.373      27.190
  C       45.487     -25.055      26.690
  O       45.105     -24.927      25.314
  C       46.817     -24.329      26.932
  N       51.056     -27.151      27.124
  C       50.461     -26.482      26.113
  N       49.338     -25.734      26.149
  C       48.828     -25.710      27.392
  C       49.319     -26.347      28.518
  C       50.493     -27.098      28.354
  N       51.079     -27.808      29.374
  N       48.492     -26.121      29.601
  C       47.527     -25.353      29.139
  N       47.692     -25.075      27.812
  O       41.122     -20.490      28.892
  O       43.102     -19.807      30.375
  H       45.922     -25.023      24.787
  H       40.676     -19.831      29.455
  H       50.951     -26.560      25.145
  H       46.690     -24.984      29.719
  H       47.368     -24.153      26.001
  H       45.510     -26.120      26.922
  H       44.641     -24.697      28.627
  H       44.780     -22.408      26.586
  H       44.970     -22.465      29.629
  H       45.179     -21.016      28.612
  H       51.909     -28.345      29.178
  H       50.609     -27.861      30.268
  P       42.141     -25.200      28.087
  C       43.364     -27.480      27.838
  O       42.186     -26.727      27.599
  O       40.718     -24.679      27.574
  O       42.305     -25.018      29.558
  H       40.355     -24.017      28.190
  H       43.237     -28.472      27.456
  H       43.552     -27.524      28.890
  H       44.192     -27.012      27.347

 6  7  8  9  10  11  12  13  14  15  25  28  32  33  34  35 0
 6-311+G(2d,p)
 ****
 36  37  40 0
 6-311+G(2d,p)
 ****
 1  2  3  4  5  16  17  18  19  20  21  22  23  24 0
 3-21G
 ****
 26  27  29  30  31  38  39 41  42  43  44  45  46  47  48 0
 3-21G
 ****


