%nproc=1
%NoSave
%Mem=1900MB
#P OB98/GEN NMR

erre ene a

0 1
  C       38.690     -59.863     -36.497
  O       38.310     -59.502     -35.167
  P       39.458     -59.611     -34.050
  C       38.874     -57.506     -32.658
  O       38.907     -58.923     -32.707
  C       37.647     -56.948     -33.388
  O       36.432     -57.640     -32.971
  C       37.412     -55.452     -33.147
  O       36.870     -54.913     -34.361
  C       36.334     -55.449     -32.081
  O       35.664     -54.192     -32.013
  C       35.487     -56.626     -32.562
  N       31.380     -55.583     -29.818
  C       32.097     -54.781     -30.685
  N       31.622     -53.535     -30.889
  N       33.184     -55.171     -31.299
  C       33.519     -56.458     -31.029
  C       32.882     -57.353     -30.203
  C       31.698     -56.899     -29.505
  O       31.024     -57.568     -28.731
  N       33.508     -58.578     -30.211
  C       34.559     -58.389     -30.991
  N       34.580     -57.141     -31.553
  O       40.574     -58.589     -34.575
  O       40.004     -60.991     -33.883
  H       35.157     -54.174     -31.173
  H       41.294     -59.076     -35.017
  H       30.559     -55.227     -29.358
  H       35.316     -59.126     -31.202
  H       34.865     -56.364     -33.428
  H       36.772     -55.659     -31.098
  H       30.765     -53.189     -30.487
  H       38.305     -54.895     -32.851
  H       32.107     -52.941     -31.552
  H       37.774     -57.133     -34.461
  H       39.777     -57.095     -33.117
  H       38.893     -57.183     -31.612
  P       37.173     -53.378     -34.700
  C       38.145     -53.384     -37.096
  O       37.008     -53.194     -36.280
  O       38.757     -53.263     -34.472
  O       36.440     -52.395     -33.845
  H       38.966     -52.406     -34.059
  H       37.817     -53.687     -38.092
  H       38.811     -54.153     -36.696
  H       38.694     -52.441     -37.178
  H       37.850     -59.752     -37.150
  H       39.020     -60.881     -36.510
  H       39.485     -59.226     -36.826

 3  4  5  6  7  8  9  10  11  12  23  26  30  31 0
 6-311+G(2d,p)
 ****
 33  35  36  37  38 0
 6-311+G(2d,p)
 ****
 1  2  13  14  15  16  17  18  19  20  21  22  24  25 0
 3-21G
 ****
 27  28  29  32  34  39  40  41  42  43  44  45  46  47  48  49 0
 3-21G
 ****


