%nproc=1
%NoSave
%Mem=1900MB
#P OB98/GEN NMR

erre ene a

0 1
  C      -26.567     112.444    -279.949
  O      -25.360     112.038    -279.344
  H      -26.573     113.538    -280.012
  H      -27.422     112.132    -279.346
  H      -26.648     112.035    -280.960
  P      -25.100     110.475    -279.084
  C      -26.232     110.858    -276.811
  O      -26.187     110.043    -277.974
  C      -26.929     110.134    -275.658
  O      -26.121     109.000    -275.239
  C      -27.161     111.017    -274.423
  O      -28.504     110.854    -273.959
  C      -26.194     110.454    -273.394
  O      -26.591     110.721    -272.051
  C      -26.166     108.978    -273.802
  N      -25.032     108.269    -273.219
  C      -25.273     107.616    -272.006
  O      -26.392     107.651    -271.489
  N      -24.229     106.986    -271.379
  C      -23.041     107.044    -271.894
  N      -22.045     106.421    -271.203
  C      -22.737     107.746    -273.155
  C      -23.771     108.330    -273.763
  O      -23.687     110.125    -278.754
  O      -25.635     109.744    -280.403
  H      -27.302     110.087    -271.805
  H      -25.202     108.862    -280.478
  H      -21.727     107.768    -273.537
  H      -23.646     108.870    -274.695
  H      -27.091     108.471    -273.496
  H      -25.203     110.902    -273.547
  H      -26.978     112.073    -274.610
  H      -27.872     109.714    -276.030
  H      -22.296     105.955    -270.337
  H      -26.761     111.786    -277.055
  H      -21.080     106.418    -271.492
  H      -25.205     111.096    -276.516
  P      -29.550     111.992    -274.393
  C      -29.850     112.689    -271.909
  O      -29.572     113.106    -273.240
  O      -30.969     111.263    -274.256
  O      -29.328     112.507    -275.777
  H      -31.349     111.113    -275.142
  H      -29.830     113.538    -271.258
  H      -29.111     111.981    -271.595
  H      -30.818     112.234    -271.872

 6  7  8  9  10  11  12  13  14  15  16  26  30  31  32  33  35 0
 6-311+G(2d,p)
 ****
 37  38 0
 6-311+G(2d,p)
 ****
 1  2  3  4  5  17  18  19  20  21  22  23  24  25 0
 3-21G
 ****
 27  28  29  34  36  39  40  41  42  43  44  45  46 0
 3-21G
 ****


