%nproc=1
%NoSave
%Mem=1900MB
#P OB98/GEN NMR

erre ene a

0 1
  C      222.795    -844.740    -577.943
  O      223.237    -845.361    -579.155
  P      224.629    -846.181    -579.158
  C      223.313    -848.440    -579.203
  O      224.344    -847.660    -578.618
  C      223.321    -849.865    -578.637
  O      224.499    -850.572    -579.086
  C      223.386    -849.925    -577.117
  O      222.114    -849.651    -576.526
  C      223.848    -851.354    -576.888
  O      222.743    -852.282    -576.963
  C      224.812    -851.566    -578.083
  N      226.210    -851.509    -577.681
  C      226.595    -852.327    -576.625
  O      225.802    -853.036    -576.004
  N      227.927    -852.289    -576.287
  C      228.873    -851.471    -576.840
  O      230.039    -851.467    -576.480
  C      228.391    -850.563    -577.898
  C      227.112    -850.623    -578.257
  O      225.403    -845.512    -577.914
  O      225.434    -846.077    -580.408
  H      222.054    -851.945    -576.356
  H      226.363    -845.590    -578.063
  H      228.223    -852.898    -575.544
  H      229.104    -849.886    -578.346
  H      226.739    -849.956    -579.039
  H      224.624    -852.543    -578.550
  H      224.318    -851.496    -575.906
  H      224.143    -849.233    -576.741
  H      222.442    -850.384    -579.021
  H      223.471    -848.490    -580.289
  H      222.343    -847.958    -579.018
  P      221.948    -848.227    -575.810
  C      219.434    -847.657    -576.238
  O      220.787    -847.469    -576.609
  O      223.309    -847.504    -576.257
  O      221.775    -848.340    -574.326
  H      223.595    -847.774    -577.153
  H      219.333    -847.799    -575.168
  H      219.033    -848.524    -576.768
  H      218.874    -846.766    -576.529
  H      221.863    -844.243    -578.116
  H      223.525    -844.027    -577.621
  H      222.667    -845.486    -577.186

 3  4  5  6  7  8  9  10  11  12  13  23  28  29  30  31  32 0
 6-311+G(2d,p)
 ****
 33  34 0
 6-311+G(2d,p)
 ****
 1  2  14  15  16  17  18  19  20  21  22  24  25  26 0
 3-21G
 ****
 27  35  36  37  38  39  40  41  42  43  44  45 0
 3-21G
 ****


