%nproc=1
%NoSave
%Mem=1900MB
#P OB98/GEN NMR

erre ene a

0 1
  C      160.186      72.015      48.075
  O      161.396      71.617      48.687
  H      159.950      73.032      48.393
  H      159.373      71.353      48.387
  H      160.279      72.001      46.986
  P      162.077      70.238      48.233
  C      163.578      69.496      46.269
  O      162.674      70.478      46.765
  C      163.880      69.762      44.797
  O      162.660      69.720      44.024
  C      164.496      71.130      44.525
  O      165.861      71.151      44.893
  C      164.230      71.268      43.034
  O      165.201      70.532      42.272
  C      162.828      70.624      42.908
  N      161.746      71.608      42.867
  C      161.418      72.114      41.612
  O      162.018      71.801      40.584
  N      160.385      73.014      41.581
  C      159.722      73.506      42.667
  O      158.835      74.357      42.591
  C      160.132      72.962      43.969
  C      161.108      72.053      44.009
  O      161.229      69.018      48.375
  O      163.393      70.151      49.144
  H      165.157      69.608      42.581
  H      163.233      69.547      49.892
  H      160.143      73.403      40.683
  H      159.630      73.335      44.855
  H      161.428      71.642      44.961
  H      162.770      70.015      41.998
  H      164.279      72.302      42.691
  H      163.936      71.910      45.056
  H      164.537      68.961      44.432
  H      163.116      68.507      46.375
  H      164.496      69.526      46.865
  P      166.535      72.483      45.468
  C      166.446      73.697      47.724
  O      165.723      72.904      46.792
  O      166.717      73.582      44.476
  O      167.941      71.990      46.047
  H      168.664      72.276      45.452
  H      165.820      73.921      48.563
  H      166.753      74.608      47.255
  H      167.309      73.159      48.056

 6  7  8  9  10  11  12  13  14  15  16  26  31  32  33  34  35 0
 6-311+G(2d,p)
 ****
 36  37 0
 6-311+G(2d,p)
 ****
 1  2  3  4  5  17  18  19  20  21  22  23  24  25 0
 3-21G
 ****
 27  28  29  30  38  39  40  41  42  43  44  45 0
 3-21G
 ****


