%nproc=1
%NoSave
%Mem=1900MB
#P OB98/GEN NMR

erre ene a

0 1
  C      -32.425     266.655    -114.235
  O      -32.072     267.468    -113.113
  P      -33.230     268.412    -112.514
  C      -31.616     268.424    -110.473
  O      -32.651     269.092    -111.181
  C      -30.508     269.401    -110.086
  O      -29.965     270.055    -111.247
  C      -30.963     270.530    -109.172
  O      -31.055     270.107    -107.821
  C      -29.825     271.527    -109.348
  O      -28.724     271.169    -108.493
  C      -29.443     271.337    -110.824
  N      -28.441     275.597    -113.382
  C      -27.615     274.824    -112.590
  N      -26.330     275.231    -112.489
  N      -28.009     273.752    -111.958
  C      -29.311     273.448    -112.176
  C      -30.231     274.134    -112.935
  C      -29.788     275.339    -113.605
  O      -30.487     276.076    -114.291
  N      -31.453     273.514    -112.924
  C      -31.268     272.440    -112.183
  N      -29.986     272.363    -111.693
  O      -34.298     267.358    -111.956
  O      -33.830     269.343    -113.513
  H      -29.103     270.923    -107.626
  H      -35.190     267.754    -111.959
  H      -28.087     276.418    -113.840
  H      -32.021     271.691    -111.975
  H      -28.357     271.308    -110.964
  H      -30.113     272.549    -109.082
  H      -25.942     276.004    -113.005
  H      -31.901     270.971    -109.530
  H      -25.701     274.656    -111.941
  H      -29.705     268.829    -109.602
  H      -31.198     267.628    -111.092
  H      -32.044     267.945    -109.587
  P      -32.517     270.079    -107.161
  C      -32.309     267.677    -106.201
  O      -32.412     269.060    -105.929
  O      -33.390     269.288    -108.244
  O      -33.086     271.424    -106.857
  H      -34.321     269.576    -108.204
  H      -31.613     267.486    -107.022
  H      -33.295     267.277    -106.455
  H      -31.941     267.169    -105.306
  H      -31.577     266.078    -114.538
  H      -32.738     267.281    -115.044
  H      -33.224     265.998    -113.962

 3  4  5  6  7  8  9  10  11  12  23  26  30  31  33  0
 6-311+G(2d,p)
 ****
 35  36  37  38 0
 6-311+G(2d,p)
 ****
 1  2  13  14  15  16  17  18  19  20  21  22  24  25  27  28  29 0
 3-21G
 ****
 32  34  39  40  41  42  43  44  45  46  47  48  49 0
 3-21G
 ****


