%nproc=1
%NoSave
%Mem=1900MB
#P OB98/GEN NMR

erre ene a

0 1
  C      560.548      -4.511    -619.735
  O      561.628      -4.666    -618.831
  H      560.814      -3.797    -620.520
  H      560.326      -5.477    -620.191
  H      559.658      -4.157    -619.201
  P      562.111      -3.361    -618.041
  C      562.760      -4.706    -615.908
  O      563.204      -3.876    -616.975
  C      563.954      -5.393    -615.263
  O      564.512      -6.378    -616.183
  C      565.109      -4.456    -614.913
  O      564.890      -3.784    -613.687
  C      566.250      -5.460    -614.800
  O      566.161      -6.157    -613.544
  C      565.951      -6.406    -615.966
  N      569.849      -7.527    -619.091
  C      569.452      -8.052    -617.912
  N      568.416      -7.713    -617.139
  C      567.748      -6.676    -617.697
  C      568.026      -6.026    -618.881
  C      569.149      -6.485    -619.605
  N      569.569      -5.938    -620.798
  N      567.136      -4.989    -619.110
  C      566.297      -5.053    -618.085
  N      566.628      -6.044    -617.207
  O      560.845      -2.991    -617.120
  O      562.555      -2.209    -618.884
  H      566.995      -6.672    -613.458
  H      560.897      -2.054    -616.844
  H      570.069      -8.881    -617.546
  H      565.454      -4.385    -617.933
  H      566.227      -7.451    -615.742
  H      567.237      -4.978    -614.837
  H      565.318      -3.757    -615.722
  H      563.604      -5.934    -614.377
  H      562.068      -5.458    -616.303
  H      570.478      -6.220    -621.131
  H      569.136      -5.081    -621.105
  H      562.233      -4.082    -615.167
  P      565.748      -2.456    -613.410
  C      563.871      -0.924    -612.448
  O      565.040      -1.715    -612.178
  O      565.396      -1.526    -614.664
  O      567.227      -2.686    -613.273
  H      566.132      -0.899    -614.858
  H      563.512      -0.495    -611.536
  H      563.110      -1.545    -612.873
  H      564.120      -0.143    -613.136

 6  7  8  9  10  11  12  13  14  15  25  28  32  33  34  35 0
 6-311+G(2d,p)
 ****
 36  39  40 0
 6-311+G(2d,p)
 ****
 1  2  3  4  5  16  17  18  19  20  21  22  23  24 0
 3-21G
 ****
 26  27  29  30  31  37  38  41  42  43  44  45  46  47 0
 3-21G
 ****
 48 0
 3-21G
 ****


