%nproc=1
%NoSave
%Mem=1900MB
#P OB98/GEN NMR

erre ene a

0 1
  C       24.328     -93.313     -57.792
  O       24.658     -92.040     -57.273
  H       23.855     -93.901     -57.001
  H       25.227     -93.838     -58.127
  H       23.624     -93.214     -58.623
  P       25.439     -91.009     -58.217
  C       27.710     -92.164     -57.762
  O       26.748     -91.775     -58.736
  C       29.127     -91.934     -58.283
  O       29.373     -92.752     -59.443
  C       29.403     -90.500     -58.721
  O       29.574     -89.659     -57.598
  C       30.642     -90.705     -59.578
  O       31.813     -90.861     -58.762
  C       30.295     -92.034     -60.296
  N       29.730     -91.845     -61.628
  C       30.563     -92.178     -62.703
  O       31.706     -92.587     -62.498
  N       30.079     -92.017     -63.978
  C       28.866     -91.607     -64.167
  N       28.447     -91.473     -65.454
  C       27.944     -91.278     -63.061
  C       28.441     -91.408     -61.833
  O       25.705     -89.654     -57.639
  O       24.527     -90.922     -59.530
  H       31.979     -89.986     -58.359
  H       23.910     -90.168     -59.468
  H       26.936     -90.949     -63.264
  H       27.828     -91.187     -60.963
  H       31.190     -92.661     -60.393
  H       30.826     -89.864     -60.247
  H       28.595     -90.137     -59.365
  H       29.830     -92.249     -57.501
  H       29.109     -91.730     -66.179
  H       27.552     -93.229     -57.560
  H       27.484     -91.322     -65.716
  H       27.558     -91.611     -56.827
  P       29.194     -88.102     -57.649
  C       31.337     -87.319     -58.835
  O       29.935     -87.516     -58.946
  O       29.443     -87.346     -56.388
  O       27.659     -88.104     -58.100
  H       27.076     -88.340     -57.336
  H       31.716     -86.928     -59.756
  H       31.813     -88.253     -58.622
  H       31.538     -86.627     -58.044

 6  7  8  9  10  11  12  13  14  15  16  26  30  31  32  33  35 0
 6-311+G(2d,p)
 ****
 37  38 0
 6-311+G(2d,p)
 ****
 1  2  3  4  5  17  18  19  20  21  22  23  24  25 0
 3-21G
 ****
 27  28  29  34  36  39  40  41  42  43  44  45  46 0
 3-21G
 ****


