%nproc=1
%NoSave
%Mem=1900MB
#P OB98/GEN NMR

erre ene a

0 1
  C     -101.138     -43.217    -243.908
  O     -101.766     -43.707    -245.075
  H     -101.783     -42.458    -243.457
  H     -100.180     -42.757    -244.156
  H     -100.989     -44.024    -243.184
  P     -101.016     -44.838    -245.930
  C     -102.980     -46.500    -246.245
  O     -102.181     -45.485    -246.832
  C     -104.316     -46.609    -246.977
  O     -105.103     -45.412    -246.816
  C     -104.208     -46.795    -248.485
  O     -103.785     -48.092    -248.875
  C     -105.641     -46.505    -248.888
  O     -106.470     -47.637    -248.569
  C     -105.964     -45.296    -247.982
  N     -105.752     -44.016    -248.653
  C     -106.893     -43.371    -249.153
  O     -108.006     -43.883    -249.031
  N     -106.744     -42.176    -249.813
  C     -105.556     -41.678    -249.985
  N     -105.465     -40.495    -250.654
  C     -104.329     -42.332    -249.491
  C     -104.494     -43.478    -248.843
  O     -100.194     -45.813    -245.149
  O     -100.177     -44.024    -247.023
  H     -106.266     -48.331    -249.221
  H      -99.683     -44.681    -247.574
  H     -103.362     -41.889    -249.686
  H     -103.639     -44.026    -248.458
  H     -107.002     -45.342    -247.624
  H     -105.756     -46.309    -249.956
  H     -103.559     -46.026    -248.927
  H     -104.880     -47.431    -246.512
  H     -106.323     -40.070    -250.978
  H     -103.129     -46.250    -245.189
  H     -104.577     -40.072    -250.896
  H     -102.469     -47.466    -246.314
  P     -103.296     -48.271    -250.396
  C     -101.789     -50.407    -250.366
  O     -103.070     -49.843    -250.613
  O     -101.821     -47.661    -250.376
  O     -104.172     -47.628    -251.425
  H     -101.817     -46.745    -250.713
  H     -101.819     -51.459    -250.560
  H     -101.517     -50.241    -249.345
  H     -101.067     -49.946    -251.007

 6  7  8  9  10  11  12  13  14  15  16  26  30  31  32  33  35 0
 6-311+G(2d,p)
 ****
 37  38 0
 6-311+G(2d,p)
 ****
 1  2  3  4  5  17  18  19  20  21  22  23  24  25 0
 3-21G
 ****
 27  28  29  34  36  39  40  41  42  43  44  45  46 0
 3-21G
 ****


