%nproc=1
%NoSave
%Mem=1900MB
#P OB98/GEN NMR

erre ene a

0 1
  C      367.770     195.041    -108.219
  O      367.510     194.455    -106.960
  H      368.321     194.324    -108.833
  H      368.384     195.938    -108.091
  H      366.837     195.299    -108.726
  P      366.534     195.263    -105.976
  C      365.104     194.410    -103.986
  O      365.556     194.179    -105.311
  C      363.812     193.639    -103.726
  O      362.765     194.101    -104.609
  C      363.925     192.133    -103.950
  O      364.477     191.473    -102.819
  C      362.461     191.769    -104.138
  O      361.800     191.738    -102.858
  C      361.948     192.952    -104.970
  N      360.407     190.067    -108.845
  C      360.128     189.964    -107.496
  N      359.330     188.941    -107.123
  N      360.591     190.786    -106.590
  C      361.384     191.755    -107.107
  C      361.732     191.962    -108.423
  C      361.206     191.051    -109.413
  O      361.404     191.110    -110.624
  N      362.546     193.056    -108.559
  C      362.710     193.497    -107.329
  N      362.029     192.739    -106.408
  O      365.571     196.060    -106.981
  O      367.210     196.190    -105.023
  H      360.862     191.532    -103.030
  H      365.361     196.931    -106.591
  H      360.034     189.400    -109.498
  H      363.300     194.359    -107.052
  H      360.907     193.202    -104.742
  H      362.327     190.787    -104.591
  H      358.981     188.244    -107.761
  H      364.478     191.903    -104.868
  H      359.084     188.863    -106.143
  H      363.492     193.853    -102.699
  H      364.918     195.480    -103.850
  H      365.880     194.089    -103.284
  P      365.190     190.052    -103.064
  C      367.105     188.852    -101.783
  O      366.539     190.091    -102.197
  O      365.716     190.168    -104.572
  O      364.314     188.864    -102.864
  H      365.833     189.276    -104.954
  H      367.994     189.037    -101.218
  H      367.346     188.264    -102.644
  H      366.400     188.323    -101.176

 6  7  8  9  10  11  12  13  14  15  26  29  33  34 0
 6-311+G(2d,p)
 ****
 36  38  39  40  41 0
 6-311+G(2d,p)
 ****
 1  2  3  4  5  16  17  18  19  20  21  22  23  24  25 0
 3-21G
 ****
 27  28  30  31  32  35  37  42  43  44  45  46  47 0
 3-21G
 ****
 48  49 0
 3-21G
 ****


