%nproc=1
%NoSave
%Mem=1900MB
#P OB98/GEN NMR

erre ene a

0 1
  C      319.140      99.401     139.056
  O      320.324      99.747     139.747
  P      321.750      99.607     139.033
  C      322.347     102.029     138.411
  O      321.879     100.768     137.937
  C      323.687     102.376     137.769
  O      323.552     102.509     136.335
  C      324.273     103.699     138.233
  O      324.783     103.622     139.551
  C      325.318     103.953     137.155
  O      326.511     103.202     137.411
  C      324.600     103.410     135.899
  N      324.073     104.471     135.054
  C      325.015     105.203     134.327
  O      326.221     104.996     134.477
  N      324.568     106.165     133.453
  C      323.306     106.450     133.407
  N      322.909     107.366     132.481
  C      322.298     105.811     134.279
  C      322.741     104.825     135.051
  O      322.080      98.239     138.534
  O      322.794     100.066     140.158
  H      323.497      99.390     140.230
  H      327.109     103.359     136.657
  H      321.267     106.135     134.248
  H      322.071     104.282     135.711
  H      325.291     102.797     135.302
  H      325.605     105.007     137.089
  H      323.504     104.479     138.186
  H      324.389     101.554     137.973
  H      323.627     107.770     131.890
  H      322.464     101.970     139.499
  H      321.951     107.421     132.141
  H      321.601     102.799     138.187
  P      324.873     104.993     140.379
  C      322.772     104.620     141.844
  O      323.386     105.381     140.826
  O      325.229     106.078     139.257
  O      325.888     104.992     141.476
  H      325.833     106.747     139.626
  H      321.947     105.201     142.268
  H      323.477     104.379     142.646
  H      322.370     103.696     141.422
  H      318.295      99.561     139.693
  H      319.182      98.370     138.771
  H      319.047     100.010     138.181

 3  4  5  6  7  8  9  10  11  12  13  24  27  28  29  30  32 0
 6-311+G(2d,p)
 ****
 34  35 0
 6-311+G(2d,p)
 ****
 1  2  14  15  16  17  18  19  20  21  22  23  25  26 0
 3-21G
 ****
 31  33  36  37  38  39  40  41  42  43  44  45  46 0
 3-21G
 ****


