%nproc=1
%NoSave
%Mem=1900MB
#P OB98/GEN NMR

erre ene a

0 1
  C      133.912     263.018    -109.873
  O      135.316     262.857    -109.819
  P      136.146     262.045    -110.916
  C      138.007     263.856    -111.072
  O      137.688     262.495    -110.809
  C      139.476     264.065    -111.463
  O      139.834     263.121    -112.497
  C      139.669     265.459    -112.064
  O      139.855     266.577    -111.217
  C      140.736     265.279    -113.138
  O      142.038     265.658    -112.687
  C      140.688     263.783    -113.446
  N      141.694     264.003    -118.407
  C      142.552     264.159    -117.340
  N      143.789     264.622    -117.639
  N      142.220     263.913    -116.095
  C      140.923     263.554    -115.955
  C      139.984     263.350    -116.935
  C      140.377     263.587    -118.303
  O      139.621     263.537    -119.271
  N      138.748     263.061    -116.408
  C      138.931     263.128    -115.104
  N      140.223     263.463    -114.781
  O      135.528     261.921    -112.268
  O      136.176     260.570    -110.261
  H      142.072     266.629    -112.640
  H      136.149     259.925    -110.994
  H      141.983     264.286    -119.336
  H      138.158     262.978    -114.359
  H      141.683     263.334    -113.337
  H      140.518     265.914    -114.005
  H      144.032     264.958    -118.558
  H      138.755     265.694    -112.617
  H      144.384     264.910    -116.871
  H      140.141     263.849    -110.621
  H      137.760     264.430    -110.174
  H      137.366     264.228    -111.876
  P      139.430     268.086    -111.539
  C      139.763     268.472    -109.032
  O      139.924     269.014    -110.329
  O      137.841     268.095    -111.374
  O      139.813     268.572    -112.899
  H      137.461     268.842    -111.872
  H      139.836     269.277    -108.296
  H      140.560     267.743    -108.840
  H      138.790     267.978    -108.928
  H      133.587     263.596    -109.034
  H      133.442     262.057    -109.848
  H      133.645     263.522    -110.778

 3  4  5  6  7  8  9  10  11  12  23  26  30  31 0
 6-311+G(2d,p)
 ****
 33  35  36  37  38 0
 6-311+G(2d,p)
 ****
 1  2  13  14  15  16  17  18  19  20  21  22  24  25 0
 3-21G
 ****
 27  28  29  32  34  39  40  41  42  43  44  45  46  47  48  49 0
 3-21G
 ****


