%nproc=1
%NoSave
%Mem=1900MB
#P OB98/GEN NMR

erre ene a

0 1
  C       72.107      28.310     195.716
  O       71.217      27.219     195.619
  H       72.658      28.229     196.656
  H       71.545      29.247     195.720
  H       72.825      28.309     194.891
  P       70.496      26.928     194.217
  C       70.802      25.013     192.518
  O       70.748      25.376     193.889
  C       71.500      23.660     192.341
  O       72.880      23.781     192.793
  C       70.853      22.516     193.137
  O       71.062      21.306     192.394
  C       71.689      22.510     194.401
  O       71.545      21.300     195.111
  C       73.078      22.796     193.827
  N       74.022      23.251     194.845
  C       74.701      22.265     195.549
  O       74.517      21.059     195.369
  N       75.578      22.700     196.506
  C       75.784      24.001     196.861
  O       76.558      24.334     197.750
  C       75.005      25.001     196.115
  C       74.175      24.589     195.153
  O       70.840      27.864     193.107
  O       68.933      26.961     194.562
  H       70.599      21.135     195.310
  H       68.424      27.267     193.786
  H       76.086      21.996     197.017
  H       75.140      26.042     196.379
  H       73.586      25.300     194.586
  H       73.498      21.895     193.357
  H       71.379      23.319     195.071
  H       69.788      22.670     193.324
  H       71.536      23.423     191.270
  H       71.360      25.790     191.984
  H       69.786      24.963     192.112
  P       69.886      20.603     191.561
  C       69.799      18.621     189.915
  O       70.374      19.141     191.113
  O       69.341      21.434     190.445
  O       68.747      20.296     192.646
  H       67.873      20.290     192.211
  H       70.199      17.648     189.721
  H       70.030      19.271     189.097
  H       68.737      18.554     190.029

 6  7  8  9  10  11  12  13  14  15  16  26  31  32  33  34  35 0
 6-311+G(2d,p)
 ****
 36  37 0
 6-311+G(2d,p)
 ****
 1  2  3  4  5  17  18  19  20  21  22  23  24  25 0
 3-21G
 ****
 27  28  29  30  38  39  40  41  42  43  44  45 0
 3-21G
 ****


