%nproc=1
%NoSave
%Mem=1900MB
#P OB98/GEN NMR

erre ene a

0 1
  C      -23.112     195.478      71.207
  O      -22.384     196.689      71.303
  P      -21.998     197.213      72.769
  C      -23.239     198.495      74.670
  O      -23.251     198.043      73.325
  C      -24.087     199.763      74.797
  O      -23.500     200.837      74.036
  C      -25.504     199.604      74.262
  O      -26.334     198.926      75.186
  C      -25.909     201.055      74.029
  O      -26.377     201.657      75.249
  C      -24.575     201.692      73.585
  N      -24.518     201.923      72.145
  C      -25.109     203.101      71.694
  O      -25.669     203.898      72.448
  N      -25.069     203.314      70.343
  C      -24.556     202.454      69.409
  O      -24.601     202.674      68.204
  C      -23.973     201.212      69.944
  C      -23.984     201.003      71.260
  O      -20.889     198.334      72.493
  O      -21.502     196.153      73.695
  H      -27.002     201.021      75.651
  H      -20.221     198.321      73.208
  H      -25.468     204.170      69.999
  H      -23.558     200.510      69.233
  H      -23.573     200.090      71.671
  H      -24.431     202.653      74.096
  H      -26.715     201.147      73.296
  H      -25.483     199.080      73.294
  H      -24.107     200.064      75.853
  H      -22.209     198.705      74.972
  H      -23.634     197.704      75.316
  P      -27.257     197.742      74.602
  C      -29.437     197.743      73.159
  O      -28.493     198.486      73.905
  O      -27.847     197.130      75.958
  O      -26.499     196.774      73.757
  H      -27.967     197.806      76.648
  H      -29.609     196.756      73.602
  H      -29.081     197.627      72.135
  H      -30.384     198.292      73.147
  H      -23.297     195.254      70.177
  H      -24.044     195.580      71.723
  H      -22.545     194.685      71.648

 3  4  5  6  7  8  9  10  11  12  13  23  28  29  30  31  32 0
 6-311+G(2d,p)
 ****
 33  34 0
 6-311+G(2d,p)
 ****
 1  2  14  15  16  17  18  19  20  21  22  24  25  26 0
 3-21G
 ****
 27  35  36  37  38  39  40  41  42  43  44  45 0
 3-21G
 ****


