%nproc=1
%NoSave
%Mem=1900MB
#P OB98/GEN NMR

erre ene a

0 1
  C       25.448     -76.254      26.424
  O       26.458     -76.781      25.587
  H       25.726     -75.236      26.708
  H       25.348     -76.859      27.330
  H       24.496     -76.223      25.887
  P       26.266     -78.298      25.100
  C       26.284     -77.588      22.622
  O       26.937     -78.337      23.639
  C       27.110     -77.601      21.336
  O       28.293     -76.783      21.539
  C       27.585     -79.001      20.926
  O       27.579     -79.097      19.500
  C       29.019     -79.039      21.423
  O       29.809     -79.997      20.726
  C       29.442     -77.586      21.220
  N       34.526     -77.419      21.430
  C       33.670     -77.646      20.411
  N       32.320     -77.648      20.440
  C       31.871     -77.323      21.667
  C       32.620     -77.067      22.800
  C       34.018     -77.133      22.653
  N       34.898     -76.939      23.691
  N       31.793     -76.820      23.879
  C       30.565     -76.915      23.400
  N       30.566     -77.238      22.072
  O       24.875     -78.829      25.174
  O       27.345     -79.072      25.993
  H       30.737     -79.919      21.036
  H       28.205     -78.609      25.997
  H       34.126     -77.862      19.448
  H       29.654     -76.777      23.973
  H       29.739     -77.374      20.184
  H       29.036     -79.302      22.488
  H       26.980     -79.801      21.354
  H       26.529     -77.128      20.536
  H       26.135     -76.553      22.951
  H       35.884     -77.003      23.495
  H       34.541     -76.718      24.608
  H       25.301     -78.041      22.448
  P       27.340     -80.527      18.817
  C       25.145     -79.903      17.619
  O       26.496     -80.317      17.466
  O       26.827     -81.598      19.720
  O       28.795     -80.898      18.255
  H       28.971     -81.845      18.426
  H       24.693     -79.799      16.655
  H       25.116     -78.964      18.131
  H       24.610     -80.635      18.187

 6  7  8  9  10  11  12  13  14  15  25  28  32  33  34  35 0
 6-311+G(2d,p)
 ****
 36  39  40 0
 6-311+G(2d,p)
 ****
 1  2  3  4  5  16  17  18  19  20  21  22  23  24 0
 3-21G
 ****
 26  27  29  30  31  37  38  41  42  43  44  45  46  47 0
 3-21G
 ****
 48 0
 3-21G
 ****


