%nproc=1
%NoSave
%Mem=1900MB
#P OB98/GEN NMR

erre ene a

0 1
  C      836.848    -413.606    -404.380
  O      836.172    -414.634    -403.670
  H      836.593    -412.640    -403.949
  H      836.500    -413.630    -405.423
  H      837.927    -413.751    -404.344
  P      836.684    -416.133    -403.868
  C      836.114    -418.435    -402.799
  O      835.785    -417.062    -402.898
  C      835.429    -419.063    -401.585
  O      836.011    -418.519    -400.370
  C      833.919    -418.802    -401.516
  O      833.256    -419.977    -400.996
  C      833.803    -417.702    -400.494
  O      832.510    -417.649    -399.884
  C      834.927    -418.093    -399.542
  N      834.006    -416.033    -395.057
  C      833.629    -417.243    -395.579
  N      832.822    -418.024    -394.814
  N      834.005    -417.683    -396.751
  C      834.809    -416.820    -397.414
  C      835.251    -415.586    -397.009
  C      834.825    -415.110    -395.707
  O      835.098    -414.016    -395.186
  N      836.020    -414.983    -397.986
  C      836.022    -415.863    -398.988
  N      835.296    -416.981    -398.669
  O      838.122    -416.122    -403.154
  O      836.775    -416.600    -405.282
  H      832.519    -416.900    -399.261
  H      838.818    -415.956    -403.811
  H      833.664    -415.739    -394.145
  H      836.495    -415.706    -399.938
  H      834.647    -418.933    -398.881
  H      833.996    -416.743    -400.964
  H      832.514    -417.784    -393.880
  H      833.468    -418.538    -402.482
  H      832.574    -418.940    -395.165
  H      835.640    -420.145    -401.589
  H      837.211    -418.532    -402.678
  H      835.814    -418.952    -403.726
  P      832.705    -421.080    -402.031
  C      831.808    -423.502    -401.765
  O      831.879    -422.179    -401.236
  O      834.051    -421.855    -402.481
  O      832.034    -420.495    -403.222
  H      833.976    -422.125    -403.394
  H      831.219    -424.115    -401.115
  H      832.795    -423.909    -401.842
  H      831.357    -423.475    -402.735

 6  7  8  9  10  11  12  13  14  15  26  29  33  34 0
 6-311+G(2d,p)
 ****
 36  38  39  40  41 0
 6-311+G(2d,p)
 ****
 1  2  3  4  5  16  17  18  19  20  21  22  23  24  25 0
 3-21G
 ****
 27  28  30  31  32  35  37  42  43  44  45  46  47 0
 3-21G
 ****
 48  49 0
 3-21G
 ****


