%nproc=1
%NoSave
%Mem=1900MB
#P OB98/GEN NMR

erre ene a

0 1
  C     -254.572     -67.800     242.341
  O     -253.938     -67.312     243.505
  P     -253.001     -66.011     243.444
  C     -253.465     -65.397     245.903
  O     -253.596     -65.000     244.539
  C     -253.818     -64.240     246.840
  O     -255.243     -64.016     246.852
  C     -253.422     -64.473     248.294
  O     -252.033     -64.271     248.467
  C     -254.305     -63.454     249.004
  O     -253.717     -62.144     248.974
  C     -255.595     -63.494     248.152
  N     -256.653     -64.275     248.784
  C     -257.352     -63.635     249.814
  O     -257.043     -62.494     250.164
  N     -258.353     -64.321     250.461
  C     -258.608     -65.546     250.118
  N     -259.606     -66.181     250.800
  C     -257.879     -66.270     249.057
  C     -256.919     -65.579     248.442
  O     -252.805     -65.434     242.079
  O     -251.641     -66.515     244.123
  H     -254.356     -61.549     249.415
  H     -251.132     -67.108     243.515
  H     -258.123     -67.290     248.820
  H     -256.330     -66.031     247.653
  H     -255.974     -62.478     247.984
  H     -254.461     -63.713     250.056
  H     -253.711     -65.486     248.596
  H     -253.336     -63.331     246.453
  H     -260.067     -65.664     251.538
  H     -252.428     -65.697     246.078
  H     -259.866     -67.141     250.639
  H     -254.114     -66.262     246.091
  P     -251.131     -65.435     249.090
  C     -249.180     -65.539     247.426
  O     -250.364     -66.162     247.886
  O     -251.831     -66.350     250.042
  O     -249.955     -64.638     249.834
  H     -249.804     -65.039     250.713
  H     -248.593     -66.271     246.866
  H     -248.581     -65.164     248.263
  H     -249.439     -64.707     246.762
  H     -255.148     -68.668     242.586
  H     -253.831     -68.057     241.613
  H     -255.217     -67.045     241.943

 3  4  5  6  7  8  9  10  11  12  13  23  27  28  29  30  32 0
 6-311+G(2d,p)
 ****
 34  35 0
 6-311+G(2d,p)
 ****
 1  2  14  15  16  17  18  19  20  21  22  24  25  26 0
 3-21G
 ****
 31  33  36  37  38  39  40  41  42  43  44  45  46 0
 3-21G
 ****


