%nproc=1
%NoSave
%Mem=1900MB
#P OB98/GEN NMR

erre ene a

0 1
  C      199.343     131.612    -321.130
  O      199.260     130.363    -320.474
  H      198.553     131.670    -321.881
  H      200.311     131.708    -321.630
  H      199.210     132.427    -320.412
  P      200.321     130.074    -319.301
  C      199.034     131.099    -317.281
  O      199.434     129.915    -317.967
  C      198.094     130.753    -316.124
  O      196.791     130.405    -316.656
  C      198.583     129.574    -315.268
  O      198.385     129.879    -313.883
  C      197.705     128.412    -315.701
  O      197.572     127.427    -314.677
  C      196.409     129.128    -316.099
  N      195.627     128.345    -317.062
  C      195.212     127.073    -316.654
  O      195.517     126.653    -315.532
  N      194.518     126.285    -317.536
  C      194.303     126.710    -318.746
  N      193.624     125.872    -319.581
  C      194.758     128.025    -319.237
  C      195.406     128.786    -318.351
  O      201.040     131.491    -319.112
  O      201.264     128.946    -319.559
  H      197.052     127.821    -313.941
  H      201.863     131.409    -318.570
  H      194.573     128.323    -320.258
  H      195.781     129.765    -318.620
  H      195.780     129.320    -315.213
  H      198.147     127.930    -316.578
  H      199.635     129.345    -315.433
  H      197.948     131.656    -315.513
  H      193.335     124.975    -319.213
  H      198.524     131.761    -317.983
  H      193.428     126.083    -320.552
  H      199.926     131.606    -316.893
  P      199.714     130.188    -313.035
  C      200.141     132.738    -313.242
  O      199.588     131.685    -312.463
  O      200.857     130.297    -314.157
  O      200.025     129.146    -312.009
  H      201.357     129.461    -314.212
  H      199.985     133.671    -312.742
  H      199.664     132.762    -314.199
  H      201.190     132.573    -313.370

 6  7  8  9  10  11  12  13  14  15  16  26  30  31  32  33  35 0
 6-311+G(2d,p)
 ****
 37  38 0
 6-311+G(2d,p)
 ****
 1  2  3  4  5  17  18  19  20  21  22  23  24  25 0
 3-21G
 ****
 27  28  29  34  36  39  40  41  42  43  44  45  46 0
 3-21G
 ****


