%nproc=1
%NoSave
%Mem=1900MB
#P OB98/GEN NMR

erre ene a

0 1
  C      336.375     706.828     -94.524
  O      336.654     707.805     -93.538
  H      337.323     706.487     -94.955
  H      335.776     707.277     -95.315
  H      335.855     705.972     -94.086
  P      335.455     708.221     -92.565
  C      334.663     710.563     -93.341
  O      335.478     709.830     -92.451
  C      335.331     711.891     -93.705
  O      335.726     712.573     -92.476
  C      336.601     711.740     -94.578
  O      336.636     712.798     -95.524
  C      337.733     711.895     -93.576
  O      338.939     712.356     -94.194
  C      337.126     712.881     -92.593
  N      341.055     714.544     -89.884
  C      340.628     714.888     -91.163
  N      341.365     715.824     -91.803
  N      339.568     714.373     -91.744
  C      338.911     713.495     -90.952
  C      339.231     713.055     -89.686
  C      340.421     713.619     -89.071
  O      340.859     713.318     -87.952
  N      338.331     712.128     -89.236
  C      337.458     711.988     -90.235
  N      337.779     712.812     -91.301
  O      335.967     707.737     -91.129
  O      334.123     707.628     -92.899
  H      339.610     712.472     -93.478
  H      335.380     707.032     -90.788
  H      341.873     714.955     -89.493
  H      336.616     711.323     -90.235
  H      337.219     713.930     -92.929
  H      337.938     710.934     -93.088
  H      342.171     716.292     -91.406
  H      336.639     710.776     -95.098
  H      341.059     716.120     -92.723
  H      334.592     712.532     -94.193
  H      333.701     710.761     -92.878
  H      334.499     709.968     -94.257
  P      335.981     712.508     -96.968
  C      338.314     712.171     -98.037
  O      337.082     712.855     -98.100
  O      334.896     713.675     -97.119
  O      335.356     711.161     -97.084
  H      334.002     713.312     -97.037
  H      338.943     712.495     -98.840
  H      338.142     711.118     -98.121
  H      338.791     712.381     -97.103

 6  7  8  9  10  11  12  13  14  15  26  29  33  34 0
 6-311+G(2d,p)
 ****
 36  38  39  40  41 0
 6-311+G(2d,p)
 ****
 1  2  3  4  5  16  17  18  19  20  21  22  23  24  25 0
 3-21G
 ****
 27  28  30  31  32  35  37  42  43  44  45  46  47 0
 3-21G
 ****
 48  49 0
 3-21G
 ****


