%nproc=1
%NoSave
%Mem=1900MB
#P OB98/GEN NMR

erre ene a

0 1
  C       34.683     -25.881     417.608
  O       35.117     -26.764     418.628
  H       35.556     -25.543     417.042
  H       34.190     -25.004     418.037
  H       33.998     -26.395     416.928
  P       34.037     -27.275     419.696
  C       34.564     -25.081     420.962
  O       33.556     -25.968     420.484
  C       34.162     -24.514     422.323
  O       32.818     -24.000     422.270
  C       34.167     -25.558     423.430
  O       35.489     -25.851     423.844
  C       33.295     -24.877     424.464
  O       34.029     -23.894     425.208
  C       32.223     -24.207     423.572
  N       30.998     -24.994     423.474
  C       30.133     -24.927     424.570
  O       30.415     -24.232     425.545
  N       28.977     -25.670     424.536
  C       28.702     -26.397     423.501
  N       27.544     -27.110     423.537
  C       29.577     -26.484     422.318
  C       30.699     -25.766     422.372
  O       34.448     -28.413     420.581
  O       32.763     -27.645     418.798
  H       34.318     -23.228     424.553
  H       32.807     -28.576     418.511
  H       29.305     -27.101     421.474
  H       31.399     -25.770     421.542
  H       31.962     -23.216     423.963
  H       32.885     -25.591     425.176
  H       33.654     -26.465     423.096
  H       34.833     -23.679     422.560
  H       26.979     -27.028     424.372
  H       34.660     -24.274     420.229
  H       27.182     -27.635     422.753
  H       35.528     -25.598     421.039
  P       35.913     -27.351     424.213
  C       35.368     -27.381     426.738
  O       34.954     -27.781     425.427
  O       37.372     -27.563     424.442
  O       35.331     -28.205     422.986
  H       35.875     -28.081     422.168
  H       34.654     -27.723     427.457
  H       35.435     -26.314     426.781
  H       36.325     -27.807     426.955

 6  7  8  9  10  11  12  13  14  15  16  26  30  31  32  33  35 0
 6-311+G(2d,p)
 ****
 37  38 0
 6-311+G(2d,p)
 ****
 1  2  3  4  5  17  18  19  20  21  22  23  24  25 0
 3-21G
 ****
 27  28  29  34  36  39  40  41  42  43  44  45  46 0
 3-21G
 ****


