%nproc=1
%NoSave
%Mem=1900MB
#P OB98/GEN NMR

erre ene a

0 1
  C     -791.498     973.383     966.909
  O     -791.177     972.199     967.659
  P     -790.039     971.176     967.197
  C     -791.388     970.337     965.161
  O     -790.141     970.905     965.607
  C     -791.582     970.488     963.625
  O     -790.538     969.805     962.867
  C     -792.934     969.949     963.107
  O     -793.272     970.804     961.991
  C     -792.575     968.569     962.655
  O     -793.507     967.991     961.734
  C     -791.202     968.830     962.047
  N     -789.810     964.906     959.000
  C     -790.486     966.059     958.770
  N     -790.768     967.060     959.575
  C     -790.272     966.842     960.832
  C     -789.547     965.693     961.239
  C     -789.357     964.717     960.249
  N     -788.729     963.511     960.522
  N     -789.249     965.791     962.587
  C     -789.759     966.980     962.949
  N     -790.371     967.599     961.948
  O     -789.960     969.933     968.003
  O     -788.673     972.011     967.344
  H     -793.091     967.200     961.345
  H     -787.997     971.450     967.772
  H     -790.827     966.166     957.728
  H     -789.685     967.339     963.985
  H     -791.271     969.255     961.009
  H     -792.516     967.873     963.521
  H     -793.726     969.989     963.864
  H     -791.450     971.551     963.385
  H     -792.201     970.792     965.665
  H     -788.685     962.810     959.793
  H     -788.454     963.279     961.474
  H     -791.358     969.248     965.420
  P     -794.511     971.813     962.035
  C     -796.146     970.293     960.759
  O     -795.859     970.892     961.984
  O     -794.474     972.893     961.021
  O     -794.512     972.381     963.521
  H     -795.037     973.220     963.555
  H     -796.559     971.038     960.051
  H     -796.867     969.495     960.908
  H     -795.237     969.837     960.292
  H     -792.285     973.915     967.402
  H     -791.815     973.107     965.925
  H     -790.632     974.009     966.842

 3  4  5  6  7  8  9  10  11  12  22  25  29  30  31  32 0
 6-311+G(2d,p)
 ****
 33  36  37 0
 6-311+G(2d,p)
 ****
 1  2  13  14  15  16  17  18  19  20  21  23  24  26 0
 3-21G
 ****
 27  28  34  35  38  39  40  41  42  43  44  45  46  47  48 0
 3-21G
 ****


