%nproc=1
%NoSave
%Mem=1900MB
#P OB98/GEN NMR

erre ene a

0 1
  C      151.056    -487.186     743.129
  O      150.684    -487.511     744.450
  H      150.265    -487.520     742.450
  H      151.982    -487.697     742.863
  H      151.167    -486.105     743.012
  P      151.521    -486.901     745.675
  C      152.133    -489.164     746.754
  O      152.615    -488.007     746.065
  C      153.267    -489.777     747.587
  O      152.711    -490.912     748.337
  C      154.456    -490.305     746.747
  O      155.663    -490.113     747.489
  C      154.118    -491.788     746.641
  O      155.248    -492.549     746.318
  C      153.554    -492.044     748.050
  N      152.821    -493.304     748.106
  C      153.569    -494.459     748.316
  O      154.784    -494.472     748.452
  N      152.870    -495.639     748.292
  C      151.545    -495.776     747.970
  O      150.990    -496.860     747.883
  C      150.811    -494.525     747.705
  C      151.481    -493.364     747.788
  O      150.716    -486.363     746.817
  O      152.425    -485.768     744.988
  H      155.634    -492.223     745.482
  H      152.721    -485.113     745.654
  H      153.392    -496.483     748.456
  H      149.767    -494.598     747.425
  H      150.975    -492.423     747.565
  H      154.361    -492.065     748.806
  H      153.348    -491.948     745.878
  H      154.524    -489.812     745.767
  H      153.605    -489.034     748.331
  H      151.803    -489.888     745.992
  H      151.299    -488.893     747.401
  P      156.677    -488.911     747.166
  C      158.388    -490.083     745.645
  O      157.365    -489.106     745.713
  O      157.665    -488.617     748.262
  O      155.716    -487.632     746.952
  H      156.086    -486.871     747.432
  H      158.771    -490.129     744.647
  H      157.989    -491.037     745.919
  H      159.177    -489.820     746.318

 6  7  8  9  10  11  12  13  14  15  16  26  31  32  33  34  35 0
 6-311+G(2d,p)
 ****
 36  37 0
 6-311+G(2d,p)
 ****
 1  2  3  4  5  17  18  19  20  21  22  23  24  25 0
 3-21G
 ****
 27  28  29  30  38  39  40  41  42  43  44  45 0
 3-21G
 ****


