%nproc=1
%NoSave
%Mem=1900MB
#P OB98/GEN NMR

erre ene a

0 1
  C      261.047    -340.166     325.859
  O      261.718    -340.397     327.086
  P      260.847    -340.366     328.431
  C      259.712    -338.352     329.691
  O      260.759    -338.824     328.858
  C      260.277    -337.466     330.805
  O      261.245    -336.544     330.253
  C      259.246    -336.597     331.511
  O      258.476    -337.346     332.437
  C      260.135    -335.530     332.137
  O      260.732    -336.026     333.348
  C      261.213    -335.344     331.050
  N      260.994    -334.159     330.219
  C      261.273    -332.932     330.812
  O      261.679    -332.816     331.967
  N      261.045    -331.829     330.031
  C      260.516    -331.828     328.771
  O      260.295    -330.809     328.133
  C      260.215    -333.155     328.213
  C      260.466    -334.244     328.950
  O      261.880    -341.018     329.466
  O      259.543    -341.080     328.306
  H      262.804    -340.868     329.197
  H      260.025    -336.034     334.019
  H      261.257    -330.929     330.433
  H      259.790    -333.195     327.214
  H      260.236    -335.225     328.554
  H      262.205    -335.260     331.513
  H      259.585    -334.618     332.389
  H      258.582    -336.131     330.769
  H      260.799    -338.110     331.524
  H      259.196    -339.209     330.132
  H      258.998    -337.791     329.078
  P      256.949    -336.871     332.651
  C      255.842    -334.708     333.605
  O      257.026    -335.390     333.251
  O      256.514    -337.780     333.893
  O      256.096    -337.032     331.435
  H      257.203    -337.841     334.577
  H      256.093    -333.899     334.299
  H      255.121    -335.371     334.082
  H      255.394    -334.267     332.708
  H      261.749    -340.217     325.053
  H      260.594    -339.197     325.877
  H      260.291    -340.910     325.720

 3  4  5  6  7  8  9  10  11  12  13  24  28  29  30  31  32 0
 6-311+G(2d,p)
 ****
 33  34 0
 6-311+G(2d,p)
 ****
 1  2  14  15  16  17  18  19  20  21  22  23  25  26  27 0
 3-21G
 ****
 35  36  37  38  39  40  41  42  43  44  45 0
 3-21G
 ****


