%nproc=1
%NoSave
%Mem=1900MB
#P OB98/GEN NMR

erre ene a

0 1
  C      259.925     984.485    -271.288
  O      260.721     983.394    -270.777
  P      260.367     981.927    -271.320
  C      261.219     979.522    -270.851
  O      261.161     980.876    -270.413
  C      262.288     978.745    -270.035
  O      263.606     979.232    -270.336
  C      262.132     978.879    -268.537
  O      261.121     978.016    -268.025
  C      263.518     978.422    -268.063
  O      263.569     976.980    -268.013
  C      264.440     978.950    -269.162
  N      267.337     981.255    -265.687
  C      266.831     979.968    -265.714
  N      267.187     979.167    -264.697
  N      266.063     979.491    -266.674
  C      265.842     980.407    -267.659
  C      266.274     981.708    -267.748
  C      267.088     982.221    -266.661
  O      267.520     983.368    -266.560
  N      265.833     982.314    -268.886
  C      265.160     981.369    -269.517
  N      265.128     980.192    -268.805
  O      261.122     981.863    -272.730
  O      258.894     981.678    -271.463
  H      262.776     976.683    -267.537
  H      260.669     981.237    -273.324
  H      267.907     981.569    -264.923
  H      264.683     981.475    -270.497
  H      265.193     978.220    -269.459
  H      263.762     978.787    -267.046
  H      267.820     979.437    -263.958
  H      261.959     979.924    -268.237
  H      266.852     978.202    -264.715
  H      262.231     977.695    -270.340
  H      261.492     979.479    -271.914
  H      260.234     979.060    -270.748
  P      259.862     978.706    -267.300
  C      257.518     977.852    -266.564
  O      258.811     977.523    -267.023
  O      259.203     979.577    -268.467
  O      260.228     979.556    -266.108
  H      258.732     980.350    -268.089
  H      257.117     978.729    -267.089
  H      257.562     978.055    -265.491
  H      256.859     977.023    -266.721
  H      260.258     985.404    -270.852
  H      258.897     984.324    -271.039
  H      260.031     984.536    -272.352

 3  4  5  6  7  8  9  10  11  12  23  26  30  31  33  0
 6-311+G(2d,p)
 ****
 35  36  37  38 0
 6-311+G(2d,p)
 ****
 1  2  13  14  15  16  17  18  19  20  21  22  24  25  27  28  29 0
 3-21G
 ****
 32  34  39  40  41  42  43  44  45  46  47  48  49 0
 3-21G
 ****


