%nproc=1
%NoSave
%Mem=1900MB
#P OB98/GEN NMR

erre ene a

0 1
  C     -414.680    -357.433    -204.734
  O     -415.468    -357.988    -203.697
  H     -415.301    -356.749    -205.317
  H     -414.320    -358.226    -205.396
  H     -413.836    -356.875    -204.321
  P     -414.760    -358.913    -202.598
  C     -414.514    -356.778    -201.158
  O     -413.875    -357.945    -201.673
  C     -413.990    -356.474    -199.761
  O     -414.548    -357.394    -198.804
  C     -412.478    -356.603    -199.627
  O     -411.805    -355.491    -200.194
  C     -412.334    -356.725    -198.111
  O     -412.393    -355.439    -197.492
  C     -413.580    -357.572    -197.754
  N     -413.260    -358.988    -197.561
  C     -414.175    -359.736    -196.820
  O     -415.182    -359.253    -196.300
  N     -413.864    -361.062    -196.653
  C     -412.714    -361.671    -197.060
  O     -412.452    -362.847    -196.808
  C     -411.771    -360.830    -197.818
  C     -412.094    -359.548    -198.037
  O     -414.040    -360.111    -203.119
  O     -415.961    -359.330    -201.625
  H     -413.252    -355.036    -197.767
  H     -416.208    -360.260    -201.800
  H     -414.509    -361.610    -196.106
  H     -410.863    -361.285    -198.175
  H     -411.417    -358.910    -198.581
  H     -414.038    -357.201    -196.831
  H     -411.394    -357.179    -197.828
  H     -412.137    -357.537    -200.090
  H     -414.311    -355.460    -199.488
  H     -415.594    -356.953    -201.122
  H     -414.320    -355.939    -201.842
  P     -410.248    -355.583    -200.533
  C     -410.608    -356.874    -202.727
  O     -410.015    -356.895    -201.432
  O     -409.337    -355.454    -199.359
  O     -410.015    -354.392    -201.571
  H     -409.361    -353.766    -201.193
  H     -410.390    -357.791    -203.234
  H     -410.211    -356.054    -203.288
  H     -411.668    -356.762    -202.632

 6  7  8  9  10  11  12  13  14  15  16  26  31  32  33  34  35 0
 6-311+G(2d,p)
 ****
 36  37 0
 6-311+G(2d,p)
 ****
 1  2  3  4  5  17  18  19  20  21  22  23  24  25 0
 3-21G
 ****
 27  28  29  30  38  39  40  41  42  43  44  45 0
 3-21G
 ****


