%nproc=1
%NoSave
%Mem=1900MB
#P OB98/GEN NMR

erre ene a

0 1
  C        1.321     693.824     542.477
  O        1.400     695.236     542.701
  P        0.341     696.014     543.616
  C        1.702     698.136     544.174
  O        0.593     697.597     543.463
  C        2.499     699.122     543.319
  O        3.174     698.443     542.240
  C        1.660     700.210     542.661
  O        1.338     701.225     543.592
  C        2.568     700.658     541.522
  O        3.571     701.564     541.997
  C        3.214     699.327     541.098
  N        3.071     699.050     535.992
  C        3.867     699.740     536.838
  N        3.839     699.757     538.187
  C        2.874     698.948     538.662
  C        1.982     698.189     537.914
  C        2.104     698.262     536.511
  N        1.279     697.573     535.655
  N        1.120     697.506     538.744
  C        1.502     697.828     539.966
  N        2.557     698.698     539.966
  O        0.289     695.539     545.035
  O       -1.070     695.793     542.896
  H        3.121     702.373     542.302
  H       -1.786     695.825     543.558
  H        4.629     700.357     536.368
  H        1.041     697.460     540.878
  H        4.267     699.447     540.842
  H        2.028     701.154     540.711
  H        0.738     699.778     542.245
  H        3.274     699.572     543.958
  H        2.354     697.303     544.475
  H        1.404     697.703     534.664
  H        0.527     697.017     536.039
  H        1.338     698.633     545.079
  P        0.029     701.106     544.506
  C        1.315     701.945     546.558
  O        0.195     702.134     545.726
  O       -0.355     699.716     544.908
  O       -1.119     701.784     543.623
  H       -1.978     701.373     543.834
  H        1.105     701.146     547.272
  H        1.505     702.879     547.111
  H        2.205     701.694     545.973
  H        2.124     693.519     541.840
  H        0.387     693.588     542.011
  H        1.393     693.310     543.413

 3  4  5  6  7  8  9  10  11  12  22  25  29  30  31  32 0
 6-311+G(2d,p)
 ****
 33  36  37 0
 6-311+G(2d,p)
 ****
 1  2  13  14  15  16  17  18  19  20  21  23  24  26 0
 3-21G
 ****
 27  28  34  35  38  39  40  41  42  43  44  45  46  47  48 0
 3-21G
 ****


