%nproc=1
%NoSave
%Mem=1900MB
#P OB98/GEN NMR

erre ene a

0 1
  C     -247.554    -180.909     117.114
  O     -248.385    -182.046     116.947
  P     -248.005    -183.156     115.860
  C     -249.612    -182.275     114.051
  O     -248.251    -182.520     114.406
  C     -249.688    -181.503     112.737
  O     -248.958    -180.262     112.840
  C     -249.076    -182.241     111.549
  O     -249.942    -183.254     111.081
  C     -248.854    -181.088     110.569
  O     -250.077    -180.776     109.871
  C     -248.463    -179.939     111.515
  N     -244.734    -176.733     110.149
  C     -246.050    -176.779     109.826
  N     -246.977    -177.693     110.201
  C     -246.411    -178.644     110.972
  C     -245.081    -178.748     111.360
  C     -244.217    -177.717     110.932
  N     -242.890    -177.620     111.306
  N     -244.882    -179.879     112.128
  C     -246.077    -180.451     112.193
  N     -247.035    -179.706     111.564
  O     -248.625    -184.500     116.076
  O     -246.408    -183.250     115.947
  H     -249.868    -180.085     109.218
  H     -246.147    -184.155     116.201
  H     -246.402    -175.977     109.189
  H     -246.289    -181.388     112.695
  H     -248.944    -178.995     111.224
  H     -248.094    -181.319     109.815
  H     -248.103    -182.660     111.830
  H     -250.740    -181.261     112.540
  H     -250.082    -181.690     114.852
  H     -242.414    -176.775     111.063
  H     -242.588    -178.159     112.111
  H     -250.144    -183.232     113.955
  P     -249.364    -184.717     110.762
  C     -249.137    -184.225     108.251
  O     -248.456    -184.581     109.443
  O     -250.369    -185.822     110.727
  O     -248.271    -184.949     111.916
  H     -248.233    -185.897     112.136
  H     -249.650    -185.104     107.844
  H     -248.403    -183.871     107.519
  H     -249.864    -183.430     108.432
  H     -247.960    -180.280     117.878
  H     -247.504    -180.366     116.194
  H     -246.571    -181.224     117.396

 3  4  5  6  7  8  9  10  11  12  22  25  29  30  31  32 0
 6-311+G(2d,p)
 ****
 33  36  37 0
 6-311+G(2d,p)
 ****
 1  2  13  14  15  16  17  18  19  20  21  23  24  26 0
 3-21G
 ****
 27  28  34  35  38  39  40  41  42  43  44  45  46  47  48 0
 3-21G
 ****


