%nproc=1
%NoSave
%Mem=1900MB
#P OB98/GEN NMR

erre ene a

0 1
  C     -133.138     199.879      27.238
  O     -133.039     199.158      28.449
  H     -132.158     199.878      26.753
  H     -133.434     200.913      27.433
  H     -133.862     199.409      26.565
  P     -134.371     198.888      29.301
  C     -134.604     201.244      30.315
  O     -135.144     200.288      29.414
  C     -135.267     201.103      31.684
  O     -134.660     202.008      32.636
  C     -136.755     201.435      31.685
  O     -137.509     200.382      31.113
  C     -136.989     201.659      33.171
  O     -137.113     200.413      33.874
  C     -135.683     202.384      33.583
  N     -135.841     203.843      33.644
  C     -136.431     204.349      34.800
  O     -136.811     203.638      35.726
  N     -136.608     205.708      34.831
  C     -136.342     206.570      33.805
  O     -136.720     207.740      33.789
  C     -135.654     205.994      32.644
  C     -135.453     204.673      32.609
  O     -134.180     198.164      30.593
  O     -135.299     198.052      28.293
  H     -135.254     197.103      28.530
  H     -137.156     200.631      34.823
  H     -137.078     206.078      35.640
  H     -135.369     206.654      31.835
  H     -134.972     204.218      31.744
  H     -135.347     202.037      34.567
  H     -137.898     202.230      33.370
  H     -136.932     202.377      31.154
  H     -135.096     200.077      32.041
  H     -134.803     202.249      29.918
  H     -133.522     201.098      30.390
  P     -139.021     200.611      30.641
  C     -140.229     199.781      32.745
  O     -139.905     200.907      31.946
  O     -139.571     199.544      29.750
  O     -138.996     202.024      29.891
  H     -139.388     201.925      29.005
  H     -140.817     200.095      33.582
  H     -139.329     199.320      33.094
  H     -140.786     199.078      32.162

 6  7  8  9  10  11  12  13  14  15  16  27  31  32  33  34  35 0
 6-311+G(2d,p)
 ****
 36  37 0
 6-311+G(2d,p)
 ****
 1  2  3  4  5  17  18  19  20  21  22  23  24  25 0
 3-21G
 ****
 26  28  29  30  38  39  40  41  42  43  44  45 0
 3-21G
 ****


