%nproc=1
%NoSave
%Mem=1900MB
#P OB98/GEN NMR

erre ene a

0 1
  C     -605.875     -16.846    -166.277
  O     -606.267     -17.037    -167.624
  P     -607.552     -16.233    -168.149
  C     -606.445     -15.800    -170.459
  O     -607.557     -16.361    -169.748
  C     -606.211     -16.541    -171.769
  O     -605.745     -17.887    -171.478
  C     -607.451     -16.662    -172.662
  O     -607.079     -16.389    -174.031
  C     -607.816     -18.136    -172.578
  O     -608.532     -18.585    -173.719
  C     -606.426     -18.757    -172.407
  N     -605.995     -23.587    -173.836
  C     -605.688     -22.430    -174.536
  N     -605.265     -22.585    -175.809
  N     -605.801     -21.237    -174.025
  C     -606.206     -21.230    -172.735
  C     -606.519     -22.307    -171.939
  C     -606.454     -23.623    -172.533
  O     -606.800     -24.676    -172.000
  N     -606.862     -21.906    -170.664
  C     -606.767     -20.588    -170.689
  N     -606.411     -20.127    -171.936
  O     -607.139     -14.697    -167.898
  O     -608.841     -16.556    -167.470
  H     -608.713     -19.533    -173.592
  H     -607.823     -14.257    -167.338
  H     -605.909     -24.490    -174.285
  H     -606.960     -19.924    -169.863
  H     -605.878     -18.726    -173.358
  H     -608.438     -18.298    -171.689
  H     -605.138     -23.486    -176.259
  H     -608.286     -16.009    -172.369
  H     -605.020     -21.755    -176.336
  H     -605.393     -16.036    -172.310
  H     -605.554     -15.870    -169.831
  H     -606.657     -14.740    -170.647
  P     -607.877     -15.191    -174.752
  C     -605.817     -13.982    -175.787
  O     -606.979     -14.760    -176.004
  O     -607.717     -13.966    -173.713
  O     -609.320     -15.500    -175.044
  H     -608.442     -13.324    -173.837
  H     -605.578     -13.880    -174.707
  H     -605.977     -12.979    -176.190
  H     -604.976     -14.444    -176.299
  H     -605.010     -17.441    -166.069
  H     -606.674     -17.139    -165.628
  H     -605.645     -15.814    -166.115

 3  4  5  6  7  8  9  10  11  12  23  26  30  31  33  0
 6-311+G(2d,p)
 ****
 35  36  37  38 0
 6-311+G(2d,p)
 ****
 1  2  13  14  15  16  17  18  19  20  21  22  24  25  27  28  29 0
 3-21G
 ****
 32  34  39  40  41  42  43  44  45  46  47  48  49 0
 3-21G
 ****


