%nproc=1
%NoSave
%Mem=1900MB
#P OB98/GEN NMR

erre ene a

0 1
  C     -737.673    -157.704    -893.920
  O     -736.360    -158.181    -893.740
  H     -738.147    -157.578    -892.940
  H     -738.268    -158.421    -894.500
  H     -737.666    -156.735    -894.420
  P     -735.509    -158.462    -895.070
  C     -735.372    -161.036    -894.780
  O     -735.937    -159.945    -895.510
  C     -736.192    -162.303    -895.020
  O     -737.534    -162.120    -894.530
  C     -736.316    -162.711    -896.480
  O     -735.167    -163.455    -896.890
  C     -737.558    -163.600    -896.430
  O     -737.192    -164.920    -895.960
  C     -738.435    -162.896    -895.370
  N     -742.926    -162.629    -897.840
  C     -742.083    -163.669    -897.610
  N     -740.885    -163.651    -896.990
  C     -740.574    -162.409    -896.580
  C     -741.333    -161.255    -896.730
  C     -742.559    -161.393    -897.390
  N     -743.416    -160.337    -897.620
  N     -740.685    -160.171    -896.190
  C     -739.599    -160.675    -895.660
  N     -739.451    -162.016    -895.890
  O     -734.042    -158.202    -894.960
  O     -736.284    -157.544    -896.130
  H     -736.500    -165.249    -896.570
  H     -737.252    -157.601    -895.990
  H     -742.416    -164.628    -897.980
  H     -738.866    -160.100    -895.070
  H     -738.943    -163.618    -894.730
  H     -738.024    -163.729    -897.400
  H     -736.519    -161.862    -897.130
  H     -735.724    -163.119    -894.420
  H     -735.343    -160.801    -893.720
  H     -744.172    -160.498    -898.260
  H     -743.080    -159.407    -897.410
  H     -734.346    -161.175    -895.140
  P     -734.774    -163.561    -898.430
  C     -735.052    -166.114    -898.710
  O     -735.588    -164.822    -898.990
  O     -733.295    -163.593    -898.700
  O     -735.504    -162.306    -899.120
  H     -735.107    -162.146    -900.000
  H     -735.686    -166.863    -899.136
  H     -734.996    -166.255    -897.651
  H     -734.072    -166.193    -899.133

 6  7  8  9  10  11  12  13  14  15  25  28  32  33  34  35 0
 6-311+G(2d,p)
 ****
 36  39  40 0
 6-311+G(2d,p)
 ****
 1  2  3  4  5  16  17  18  19  20  21  22  23  24 0
 3-21G
 ****
 26  27  29  30  31  37  38  41  42  43  44  45  46  47 0
 3-21G
 ****
 48 0
 3-21G
 ****


