%nproc=1
%NoSave
%Mem=1900MB
#P OB98/GEN NMR

erre ene a

0 1
  C      742.438     352.294      18.289
  O      742.688     352.055      16.917
  H      741.539     351.753      18.580
  H      742.284     353.366      18.456
  H      743.277     351.940      18.896
  P      744.073     352.612      16.323
  C      745.318     350.389      16.982
  O      745.230     351.799      17.089
  C      746.139     349.813      18.139
  O      745.516     350.190      19.388
  C      746.247     348.287      18.108
  O      747.545     347.917      18.587
  C      745.196     347.842      19.112
  O      745.462     346.546      19.634
  C      745.265     348.985      20.145
  N      744.045     349.096      20.937
  C      744.178     348.908      22.316
  O      745.273     348.651      22.812
  N      743.053     348.975      23.109
  C      741.896     349.145      22.564
  N      740.817     349.177      23.400
  C      741.699     349.301      21.109
  C      742.808     349.281      20.363
  O      744.141     354.077      16.973
  O      744.160     352.593      14.836
  H      746.299     346.588      20.151
  H      743.904     354.092      17.915
  H      740.706     349.435      20.698
  H      742.755     349.391      19.286
  H      746.114     348.839      20.822
  H      744.205     347.822      18.642
  H      746.084     347.864      17.116
  H      747.132     350.277      18.115
  H      740.995     349.035      24.390
  H      745.773     350.107      16.025
  H      739.862     349.247      23.083
  H      744.302     349.991      17.002
  P      748.706     347.598      17.538
  C      750.146     349.668      18.089
  O      749.422     348.956      17.093
  O      748.333     346.672      16.426
  O      749.838     346.907      18.466
  H      750.213     346.157      17.968
  H      750.571     350.550      17.658
  H      750.928     349.047      18.474
  H      749.484     349.942      18.884

 6  7  8  9  10  11  12  13  14  15  16  26  30  31  32  33  35 0
 6-311+G(2d,p)
 ****
 37  38 0
 6-311+G(2d,p)
 ****
 1  2  3  4  5  17  18  19  20  21  22  23  24  25 0
 3-21G
 ****
 27  28  29  34  36  39  40  41  42  43  44  45  46 0
 3-21G
 ****


