%nproc=1
%NoSave
%Mem=1900MB
#P OB98/GEN NMR

erre ene a

0 1
  C     1303.328    -395.691     550.757
  O     1302.109    -396.057     551.392
  P     1301.897    -397.594     551.791
  C     1302.787    -397.491     554.207
  O     1303.003    -397.993     552.889
  C     1302.955    -398.622     555.249
  O     1304.373    -398.873     555.469
  C     1302.367    -398.321     556.634
  O     1301.003    -398.656     556.871
  C     1303.204    -399.228     557.527
  O     1302.648    -400.581     557.513
  C     1304.563    -399.239     556.839
  N     1309.226    -398.874     558.966
  C     1308.561    -399.917     558.399
  N     1307.336    -399.927     557.856
  C     1306.765    -398.713     557.931
  C     1307.322    -397.565     558.477
  C     1308.607    -397.672     559.020
  N     1309.285    -396.630     559.601
  N     1306.445    -396.490     558.371
  C     1305.362    -397.002     557.795
  N     1305.525    -398.340     557.488
  O     1301.741    -398.548     550.648
  O     1300.548    -397.526     552.672
  H     1303.248    -401.126     558.057
  H     1300.024    -398.351     552.477
  H     1309.120    -400.867     558.375
  H     1304.462    -396.468     557.594
  H     1305.034    -400.228     556.842
  H     1303.205    -398.917     558.586
  H     1302.533    -397.269     556.901
  H     1302.508    -399.535     554.847
  H     1301.789    -397.054     554.288
  H     1310.190    -396.787     560.006
  H     1308.809    -395.735     559.714
  H     1303.516    -396.667     554.377
  P     1300.049    -397.711     557.790
  C     1299.341    -396.275     555.720
  O     1299.933    -396.318     557.012
  O     1300.481    -397.584     559.209
  O     1298.605    -398.374     557.573
  H     1298.237    -398.267     556.685
  H     1299.166    -395.233     555.430
  H     1298.391    -396.802     555.704
  H     1300.015    -396.717     554.958
  H     1303.323    -394.641     550.554
  H     1303.428    -396.232     549.839
  H     1304.150    -395.926     551.401

 3  4  5  6  7  8  9  10  11  12  22  25  29  30  31  32 0
 6-311+G(2d,p)
 ****
 33  36  37 0
 6-311+G(2d,p)
 ****
 1  2  13  14  15  16  17  18  19  20  21  23  24  26 0
 3-21G
 ****
 27  28  34  35  38  39  40  41  42  43  44  45  46  47  48 0
 3-21G
 ****


