%nproc=1
%NoSave
%Mem=1900MB
#P OB98/GEN NMR

erre ene a

0 1
  C     -517.110    -148.241    -247.321
  O     -516.372    -148.817    -246.243
  P     -516.664    -150.301    -245.698
  C     -514.759    -151.252    -247.140
  O     -516.135    -151.359    -246.780
  C     -514.388    -152.227    -248.278
  O     -515.078    -151.847    -249.507
  C     -512.900    -152.261    -248.627
  O     -512.202    -153.069    -247.698
  C     -512.953    -152.826    -250.055
  O     -513.101    -154.248    -250.036
  C     -514.210    -152.144    -250.621
  N     -514.765    -149.924    -255.192
  C     -515.185    -151.112    -254.711
  N     -514.988    -151.637    -253.471
  C     -514.298    -150.778    -252.700
  C     -513.803    -149.539    -253.054
  C     -514.049    -149.106    -254.367
  N     -513.607    -147.901    -254.856
  N     -513.121    -148.969    -251.983
  C     -513.237    -149.844    -251.015
  N     -513.936    -150.959    -251.394
  O     -518.082    -150.529    -245.266
  O     -515.658    -150.488    -244.466
  H     -513.240    -154.534    -250.952
  H     -516.034    -151.122    -243.831
  H     -515.751    -151.721    -255.403
  H     -512.815    -149.710    -250.015
  H     -514.767    -152.841    -251.272
  H     -512.051    -152.595    -250.621
  H     -512.499    -151.238    -248.651
  H     -514.752    -153.219    -248.008
  H     -514.147    -151.502    -246.258
  H     -513.795    -147.671    -255.818
  H     -513.032    -147.303    -254.273
  H     -514.550    -150.226    -247.441
  P     -511.852    -152.487    -246.238
  C     -513.301    -154.217    -245.005
  O     -513.100    -152.855    -245.279
  O     -511.432    -151.048    -246.196
  O     -510.710    -153.446    -245.704
  H     -510.128    -152.946    -245.096
  H     -513.792    -154.701    -245.849
  H     -513.914    -154.321    -244.114
  H     -512.335    -154.725    -244.832
  H     -516.748    -147.253    -247.513
  H     -518.147    -148.196    -247.060
  H     -516.989    -148.842    -248.198

 3  4  5  6  7  8  9  10  11  12  22  25  29  30  31  32 0
 6-311+G(2d,p)
 ****
 33  36  37 0
 6-311+G(2d,p)
 ****
 1  2  13  14  15  16  17  18  19  20  21  23  24  26 0
 3-21G
 ****
 27  28  34  35  38  39  40  41  42  43  44  45  46  47  48 0
 3-21G
 ****


