%nproc=1
%NoSave
%Mem=1900MB
#P OB98/GEN NMR

erre ene a

0 1
  C      -94.826    -199.523     631.404
  O      -95.642    -199.741     632.539
  H      -93.917    -199.004     631.717
  H      -95.344    -198.900     630.666
  H      -94.550    -200.477     630.944
  P      -97.109    -200.349     632.317
  C      -97.456    -201.044     634.787
  O      -97.860    -200.186     633.722
  C      -98.011    -200.528     636.111
  O      -97.447    -199.236     636.427
  C      -99.523    -200.327     636.091
  O     -100.194    -201.568     636.187
  C      -99.698    -199.387     637.271
  O      -99.680    -200.112     638.514
  C      -98.454    -198.477     637.140
  N      -98.741    -197.225     636.464
  C      -99.710    -196.412     637.066
  O     -100.260    -196.765     638.106
  N     -100.038    -195.226     636.453
  C      -99.457    -194.877     635.352
  N      -99.836    -193.694     634.798
  C      -98.421    -195.695     634.689
  C      -98.127    -196.848     635.289
  O      -97.190    -201.726     631.728
  O      -97.830    -199.255     631.390
  H      -99.467    -199.453     639.206
  H      -97.685    -199.460     630.443
  H      -97.960    -195.357     633.777
  H      -97.369    -197.507     634.875
  H      -98.038    -198.252     638.127
  H     -100.644    -198.848     637.218
  H      -99.816    -199.791     635.183
  H      -97.713    -201.228     636.904
  H     -100.561    -193.163     635.281
  H      -96.363    -201.036     634.810
  H      -99.384    -193.272     633.989
  H      -97.794    -202.072     634.609
  P     -101.227    -202.027     635.041
  C     -101.357    -204.296     636.260
  O     -102.093    -203.213     635.700
  O     -100.607    -202.339     633.723
  O     -102.268    -200.807     634.987
  H     -101.876    -200.020     634.544
  H     -102.036    -205.017     636.665
  H     -100.720    -203.930     637.038
  H     -100.762    -204.755     635.498

 6  7  8  9  10  11  12  13  14  15  16  26  30  31  32  33  35 0
 6-311+G(2d,p)
 ****
 37  38 0
 6-311+G(2d,p)
 ****
 1  2  3  4  5  17  18  19  20  21  22  23  24  25 0
 3-21G
 ****
 27  28  29  34  36  39  40  41  42  43  44  45  46 0
 3-21G
 ****


