%nproc=1
%NoSave
%Mem=1900MB
#P OB98/GEN NMR

erre ene a

0 1
  C      -57.784    -109.668    -177.631
  O      -57.928    -108.510    -176.825
  P      -57.617    -108.636    -175.257
  C      -60.127    -108.357    -174.645
  O      -58.953    -109.151    -174.525
  C      -61.341    -109.091    -174.071
  O      -61.463    -110.394    -174.705
  C      -61.258    -109.331    -172.559
  O      -62.577    -109.266    -171.996
  C      -60.788    -110.768    -172.451
  O      -61.149    -111.344    -171.198
  C      -61.492    -111.388    -173.659
  N      -61.020    -116.345    -172.779
  C      -61.961    -115.455    -172.300
  N      -62.843    -115.940    -171.400
  N      -62.036    -114.204    -172.678
  C      -61.083    -113.862    -173.582
  C      -60.109    -114.656    -174.140
  C      -60.030    -116.034    -173.703
  O      -59.202    -116.868    -174.066
  N      -59.348    -113.962    -175.047
  C      -59.833    -112.733    -175.006
  N      -60.863    -112.614    -174.107
  O      -57.497    -107.107    -174.792
  O      -56.374    -109.394    -174.925
  H      -60.507    -111.015    -170.537
  H      -56.559    -106.880    -174.643
  H      -60.996    -117.298    -172.449
  H      -59.461    -111.895    -175.584
  H      -62.544    -111.609    -173.442
  H      -59.700    -110.818    -172.552
  H      -62.799    -116.873    -171.017
  H      -60.601    -108.633    -172.026
  H      -63.516    -115.294    -170.999
  H      -62.245    -108.523    -174.325
  H      -60.304    -108.140    -175.699
  H      -59.981    -107.406    -174.122
  P      -62.656    -108.964    -170.418
  C      -62.990    -111.488    -169.868
  O      -62.212    -110.323    -169.690
  O      -64.230    -108.880    -170.140
  O      -61.930    -107.728    -169.996
  H      -64.401    -108.322    -169.354
  H      -62.385    -112.248    -170.375
  H      -63.890    -111.301    -170.463
  H      -63.291    -111.867    -168.888
  H      -58.025    -109.428    -178.646
  H      -58.445    -110.432    -177.279
  H      -56.774    -110.017    -177.577

 3  4  5  6  7  8  9  10  11  12  23  26  30  31 0
 6-311+G(2d,p)
 ****
 33  35  36  37  38 0
 6-311+G(2d,p)
 ****
 1  2  13  14  15  16  17  18  19  20  21  22  24  25 0
 3-21G
 ****
 27  28  29  32  34  39  40  41  42  43  44  45  46  47  48  49 0
 3-21G
 ****


