%nproc=1
%NoSave
%Mem=1900MB
#P OB98/GEN NMR

erre ene a

0 1
  C     -409.447     230.081    -119.453
  O     -408.877     228.857    -119.884
  P     -407.590     228.310    -119.073
  C     -405.268     229.320    -118.511
  O     -406.441     229.413    -119.315
  C     -404.065     229.883    -119.264
  O     -404.260     231.301    -119.496
  C     -402.737     229.772    -118.520
  O     -402.170     228.482    -118.648
  C     -401.896     230.822    -119.249
  O     -401.373     230.263    -120.469
  C     -402.951     231.912    -119.556
  N     -401.373     236.669    -118.825
  C     -401.230     235.850    -119.935
  N     -400.599     236.382    -120.994
  N     -401.671     234.615    -119.985
  C     -402.314     234.226    -118.855
  C     -402.518     234.954    -117.693
  C     -401.992     236.291    -117.623
  O     -402.016     237.053    -116.662
  N     -403.216     234.218    -116.762
  C     -403.480     233.081    -117.374
  N     -402.905     233.027    -118.641
  O     -407.108     227.070    -119.952
  O     -407.856     227.923    -117.644
  H     -400.841     229.487    -120.201
  H     -406.615     226.438    -119.396
  H     -401.038     237.624    -118.839
  H     -404.077     232.278    -116.948
  H     -402.828     232.293    -120.590
  H     -401.060     231.167    -118.657
  H     -400.368     237.366    -121.075
  H     -402.851     230.056    -117.469
  H     -400.518     235.817    -121.832
  H     -404.004     229.372    -120.242
  H     -405.068     228.256    -118.274
  H     -405.431     229.861    -117.563
  P     -401.643     227.789    -117.294
  C     -399.944     228.539    -115.455
  O     -400.429     228.723    -116.777
  O     -400.929     226.463    -117.810
  O     -402.720     227.503    -116.297
  H     -400.929     225.781    -117.104
  H     -399.979     227.484    -115.159
  H     -400.560     229.137    -114.776
  H     -398.908     228.894    -115.420
  H     -410.285     230.322    -120.073
  H     -408.716     230.859    -119.523
  H     -409.771     229.986    -118.438

 3  4  5  6  7  8  9  10  11  12  23  26  30  31  33  0
 6-311+G(2d,p)
 ****
 35  36  37  38 0
 6-311+G(2d,p)
 ****
 1  2  13  14  15  16  17  18  19  20  21  22  24  25  27  28  29 0
 3-21G
 ****
 32  34  39  40  41  42  43  44  45  46  47  48  49 0
 3-21G
 ****


