%nproc=1
%NoSave
%Mem=1900MB
#P OB98/GEN NMR

erre ene a

0 1
  C        8.710     -32.998       1.635
  O        8.427     -33.773       2.785
  P        8.689     -33.168       4.244
  C       10.802     -32.613       5.657
  O       10.275     -33.163       4.470
  C       12.268     -32.200       5.474
  O       12.308     -31.124       4.505
  C       12.942     -31.656       6.729
  O       14.358     -31.709       6.544
  C       12.483     -30.215       6.728
  O       13.319     -29.382       7.526
  C       12.456     -29.873       5.216
  N       11.343     -28.963       4.888
  C       11.435     -27.659       5.365
  O       12.420     -27.235       5.967
  N       10.321     -26.883       5.203
  C        9.141     -27.302       4.663
  O        8.077     -26.710       4.803
  C        9.185     -28.597       3.967
  C       10.261     -29.371       4.131
  O        8.169     -34.333       5.209
  O        8.006     -31.873       4.519
  H       14.250     -29.611       7.299
  H        7.255     -34.151       5.495
  H       10.336     -25.988       5.676
  H        8.318     -28.901       3.399
  H       10.301     -30.355       3.673
  H       13.389     -29.394       4.897
  H       11.470     -30.161       7.143
  H       12.660     -32.173       7.650
  H       12.835     -33.044       5.066
  H       10.705     -33.342       6.467
  H       10.220     -31.735       5.960
  P       15.215     -32.597       7.567
  C       15.981     -32.339      10.004
  O       15.437     -31.692       8.872
  O       16.444     -33.233       7.010
  O       14.156     -33.689       8.072
  H       14.627     -34.450       8.459
  H       16.547     -31.610      10.589
  H       16.648     -33.157       9.716
  H       15.168     -32.734      10.618
  H        8.474     -33.563       0.757
  H        9.749     -32.741       1.625
  H        8.121     -32.105       1.653

 3  4  5  6  7  8  9  10  11  12  13  23  28  29  30  31  32 0
 6-311+G(2d,p)
 ****
 33  34 0
 6-311+G(2d,p)
 ****
 1  2  14  15  16  17  18  19  20  21  22  24  25  26  27 0
 3-21G
 ****
 35  36  37  38  39  40  41  42  43  44  45 0
 3-21G
 ****


