%nproc=1
%NoSave
%Mem=1900MB
#P OB98/GEN NMR

erre ene a

0 1
  C      150.581     322.382    -137.644
  O      149.319     322.749    -138.171
  P      148.466     321.597    -138.908
  C      148.876     320.270    -141.107
  O      149.025     321.494    -140.406
  C      149.968     320.124    -142.169
  O      151.259     320.027    -141.535
  C      149.844     318.887    -143.040
  O      148.825     319.038    -144.012
  C      151.261     318.812    -143.613
  O      151.408     319.751    -144.686
  C      152.116     319.242    -142.402
  N      156.213     316.266    -141.655
  C      155.984     317.286    -142.499
  N      154.860     318.016    -142.663
  C      153.905     317.600    -141.816
  C      153.980     316.556    -140.906
  C      155.200     315.867    -140.840
  N      155.428     314.819    -139.970
  N      152.784     316.409    -140.234
  C      152.010     317.351    -140.714
  N      152.639     318.109    -141.667
  O      147.035     322.276    -139.095
  O      148.389     320.303    -138.162
  H      151.076     319.323    -145.500
  H      146.321     321.613    -139.021
  H      156.825     317.562    -143.142
  H      150.990     317.534    -140.402
  H      152.961     319.867    -142.697
  H      151.508     317.817    -144.000
  H      149.639     318.003    -142.425
  H      149.955     321.034    -142.791
  H      147.895     320.247    -141.603
  H      156.277     314.288    -140.086
  H      154.630     314.438    -139.471
  H      148.914     319.440    -140.390
  P      148.197     317.702    -144.634
  C      149.429     315.714    -145.704
  O      149.366     317.124    -145.567
  O      147.155     318.294    -145.694
  O      147.628     316.752    -143.631
  H      147.563     318.982    -146.259
  H      150.227     315.465    -146.403
  H      148.479     315.333    -146.092
  H      149.643     315.258    -144.733
  H      151.038     323.234    -137.185
  H      151.207     322.024    -138.434
  H      150.452     321.610    -136.914

 3  4  5  6  7  8  9  10  11  12  22  25  29  30  31  32 0
 6-311+G(2d,p)
 ****
 33  36  37 0
 6-311+G(2d,p)
 ****
 1  2  13  14  15  16  17  18  19  20  21  23  24  26 0
 3-21G
 ****
 27  28  34  35  38  39  40  41  42  43  44  45  46  47  48 0
 3-21G
 ****


