%nproc=1
%NoSave
%Mem=1900MB
#P OB98/GEN NMR

erre ene a

0 1
  C     -698.095     801.628     156.887
  O     -697.929     800.256     156.512
  P     -698.700     799.130     157.354
  C     -698.169     797.385     159.196
  O     -697.659     798.442     158.382
  C     -697.395     797.298     160.516
  O     -696.059     796.733     160.300
  C     -697.191     798.678     161.179
  O     -697.200     798.555     162.605
  C     -695.782     799.052     160.751
  O     -695.219     800.039     161.616
  C     -695.094     797.685     160.799
  N     -690.178     799.120     160.516
  C     -691.109     799.271     161.501
  N     -692.394     798.841     161.511
  C     -692.682     798.178     160.369
  C     -691.850     797.933     159.295
  C     -690.530     798.444     159.393
  N     -689.586     798.323     158.389
  N     -692.489     797.233     158.308
  C     -693.740     797.093     158.761
  N     -693.885     797.627     160.012
  O     -699.518     798.169     156.552
  O     -699.644     799.991     158.327
  H     -695.279     799.695     162.524
  H     -700.521     799.566     158.388
  H     -690.767     799.822     162.373
  H     -694.545     796.641     158.203
  H     -694.846     797.387     161.826
  H     -695.797     799.449     159.733
  H     -697.928     799.434     160.882
  H     -697.919     796.620     161.196
  H     -698.088     796.431     158.657
  H     -688.723     798.806     158.501
  H     -689.883     797.952     157.478
  H     -699.240     797.548     159.360
  P     -698.540     799.059     163.349
  C     -699.174     801.329     164.490
  O     -698.354     800.641     163.583
  O     -698.909     798.247     164.552
  O     -699.627     798.976     162.161
  H     -699.349     799.395     161.326
  H     -698.798     802.347     164.593
  H     -699.164     800.850     165.476
  H     -700.200     801.375     164.104
  H     -697.520     802.249     156.232
  H     -697.761     801.765     157.894
  H     -699.129     801.895     156.815

 3  4  5  6  7  8  9  10  11  12  22  25  29  30  31  32 0
 6-311+G(2d,p)
 ****
 33  36  37 0
 6-311+G(2d,p)
 ****
 1  2  13  14  15  16  17  18  19  20  21  23  24  26 0
 3-21G
 ****
 27  28  34  35  38  39  40  41  42  43  44  45  46  47  48 0
 3-21G
 ****


