%nproc=1
%NoSave
%Mem=1900MB
#P OB98/GEN NMR

erre ene a

0 1
  C     -910.239       5.382      23.817
  O     -909.835       5.998      22.586
  P     -909.399       5.139      21.302
  C     -906.936       5.694      21.826
  O     -907.943       5.632      20.823
  C     -905.681       4.914      21.415
  O     -905.902       3.495      21.513
  C     -905.221       5.179      19.983
  O     -904.518       6.407      19.900
  C     -904.371       3.938      19.714
  O     -903.059       4.091      20.287
  C     -905.149       2.850      20.461
  N     -905.635      -1.442      17.722
  C     -904.630      -0.976      18.509
  N     -904.578       0.175      19.201
  C     -905.718       0.877      19.049
  C     -906.816       0.538      18.278
  C     -906.751      -0.691      17.589
  N     -907.764      -1.154      16.783
  N     -907.795       1.516      18.347
  C     -907.288       2.422      19.162
  N     -906.039       2.086      19.605
  O     -910.425       5.105      20.217
  O     -909.123       3.669      21.869
  H     -902.635       4.859      19.856
  H     -909.289       3.007      21.169
  H     -903.762      -1.621      18.590
  H     -907.789       3.340      19.450
  H     -904.482       2.139      20.962
  H     -904.242       3.735      18.649
  H     -906.081       5.180      19.311
  H     -904.888       5.172      22.128
  H     -907.347       5.269      22.751
  H     -907.626      -2.021      16.295
  H     -908.584      -0.577      16.638
  H     -906.680       6.745      22.002
  P     -905.263       7.711      19.336
  C     -903.447       7.990      17.540
  O     -904.144       8.606      18.602
  O     -906.119       8.438      20.312
  O     -906.126       7.156      18.102
  H     -906.920       7.707      17.992
  H     -902.658       7.348      17.948
  H     -902.989       8.767      16.925
  H     -904.121       7.394      16.916
  H     -910.484       6.140      24.531
  H     -909.438       4.781      24.195
  H     -911.096       4.765      23.643

 3  4  5  6  7  8  9  10  11  12  22  25  29  30  31  32 0
 6-311+G(2d,p)
 ****
 33  36  37 0
 6-311+G(2d,p)
 ****
 1  2  13  14  15  16  17  18  19  20  21  23  24  26 0
 3-21G
 ****
 27  28  34  35  38  39  40  41  42  43  44  45  46  47  48 0
 3-21G
 ****


