%nproc=1
%NoSave
%Mem=1900MB
#P OB98/GEN NMR

erre ene a

0 1
  C      653.090     453.729     315.875
  O      653.068     454.736     316.886
  P      653.396     454.482     318.426
  C      651.042     453.642     319.233
  O      652.411     453.352     318.971
  C      650.209     452.409     319.606
  O      650.395     451.377     318.599
  C      650.695     451.808     320.931
  O      650.256     452.343     322.163
  C      650.477     450.307     320.783
  O      649.232     449.885     321.330
  C      650.504     450.096     319.260
  N      653.406     445.891     319.580
  C      652.280     446.235     320.311
  N      651.910     445.375     321.291
  N      651.595     447.332     320.113
  C      652.132     448.143     319.165
  C      653.244     447.925     318.395
  C      653.968     446.678     318.580
  O      654.965     446.325     317.948
  N      653.499     448.984     317.560
  C      652.556     449.863     317.836
  N      651.687     449.388     318.807
  O      653.548     455.707     319.267
  O      654.837     453.747     318.381
  H      649.202     450.161     322.264
  H      655.322     454.024     319.187
  H      653.882     445.028     319.757
  H      652.437     450.827     317.378
  H      649.643     449.504     318.946
  H      651.254     449.750     321.315
  H      652.455     444.580     321.561
  H      651.799     451.938     320.952
  H      651.221     445.726     321.955
  H      649.141     452.635     319.608
  H      650.649     454.119     318.325
  H      650.969     454.394     320.026
  P      651.080     453.314     323.130
  C      651.154     451.479     324.924
  O      651.905     452.412     324.161
  O      649.953     453.966     324.063
  O      651.878     454.378     322.436
  H      650.310     454.769     324.506
  H      651.748     451.152     325.782
  H      650.909     450.608     324.301
  H      650.224     451.930     325.280
  H      652.833     454.165     314.932
  H      652.384     452.963     316.119
  H      654.070     453.304     315.816

 3  4  5  6  7  8  9  10  11  12  23  26  30  31 0
 6-311+G(2d,p)
 ****
 33  35  36  37  38 0
 6-311+G(2d,p)
 ****
 1  2  13  14  15  16  17  18  19  20  21  22  24  25 0
 3-21G
 ****
 27  28  29  32  34  39  40  41  42  43  44  45  46  47  48  49 0
 3-21G
 ****


