%nproc=1
%NoSave
%Mem=1900MB
#P OB98/GEN NMR

erre ene a

0 1
  C      -47.899     -12.498     221.958
  O      -47.797     -12.603     223.365
  P      -47.110     -13.876     224.051
  C      -44.677     -14.561     224.461
  O      -45.585     -13.942     223.562
  C      -43.680     -15.452     223.720
  O      -44.387     -16.573     223.120
  C      -42.901     -14.738     222.607
  O      -41.564     -15.254     222.624
  C      -43.624     -15.177     221.348
  O      -42.813     -15.054     220.186
  C      -44.017     -16.607     221.726
  N      -45.100     -17.124     220.903
  C      -44.859     -17.219     219.528
  O      -43.827     -16.759     219.049
  N      -45.807     -17.824     218.741
  C      -46.966     -18.127     219.249
  N      -47.851     -18.783     218.450
  C      -47.342     -17.805     220.640
  C      -46.357     -17.350     221.417
  O      -47.864     -15.157     223.906
  O      -46.975     -13.465     225.597
  H      -47.382     -14.163     226.148
  H      -42.142     -15.769     220.192
  H      -48.354     -17.963     220.983
  H      -46.526     -17.113     222.463
  H      -43.154     -17.282     221.637
  H      -44.520     -14.558     221.205
  H      -42.870     -13.653     222.741
  H      -42.980     -15.872     224.459
  H      -47.543     -19.025     217.517
  H      -45.250     -15.173     225.162
  H      -48.621     -19.332     218.834
  H      -44.148     -13.798     225.046
  P      -40.363     -14.277     222.184
  C      -39.622     -11.894     222.894
  O      -40.683     -12.819     222.767
  O      -40.659     -14.085     220.617
  O      -38.976     -14.797     222.378
  H      -39.828     -13.861     220.161
  H      -40.005     -10.985     223.364
  H      -39.222     -11.635     221.909
  H      -38.824     -12.304     223.521
  H      -48.386     -11.580     221.703
  H      -48.468     -13.321     221.579
  H      -46.920     -12.513     221.527

 3  4  5  6  7  8  9  10  11  12  13  24  27  28  29  30  32 0
 6-311+G(2d,p)
 ****
 34  35 0
 6-311+G(2d,p)
 ****
 1  2  14  15  16  17  18  19  20  21  22  23  25  26 0
 3-21G
 ****
 31  33  36  37  38  39  40  41  42  43  44  45  46 0
 3-21G
 ****


