%nproc=1
%NoSave
%Mem=1900MB
#P OB98/GEN NMR

erre ene a

0 1
  C       93.036     374.618    -298.692
  O       92.587     373.544    -299.505
  P       93.547     373.030    -300.684
  C       92.569     374.359    -302.696
  O       92.709     373.105    -302.053
  C       91.601     374.251    -303.880
  O       92.085     373.239    -304.813
  C       90.171     373.860    -303.480
  O       89.271     374.517    -304.384
  C       90.156     372.367    -303.752
  O       88.848     371.833    -303.878
  C       91.008     372.310    -305.028
  N       91.497     370.964    -305.326
  C       91.249     370.462    -306.596
  O       90.648     371.082    -307.478
  N       91.673     369.176    -306.819
  C       92.213     368.337    -305.897
  O       92.460     367.155    -306.126
  C       92.458     368.919    -304.562
  C       92.090     370.185    -304.344
  O       93.672     371.462    -300.399
  O       94.882     373.699    -300.737
  H       88.936     370.898    -304.124
  H       94.515     371.260    -299.945
  H       91.509     368.790    -307.742
  H       92.903     368.286    -303.810
  H       92.231     370.637    -303.371
  H       90.424     372.687    -305.880
  H       90.648     371.840    -302.919
  H       89.921     374.109    -302.444
  H       91.595     375.212    -304.417
  H       93.545     374.684    -303.065
  H       92.220     375.111    -301.975
  P       87.889     375.089    -303.789
  C       86.391     373.236    -304.889
  O       86.728     374.603    -304.786
  O       88.050     376.650    -304.109
  O       87.686     374.791    -302.338
  H       88.405     376.822    -305.003
  H       86.505     372.726    -303.924
  H       87.041     372.764    -305.629
  H       85.359     373.147    -305.210
  H       92.292     374.844    -297.957
  H       93.208     375.480    -299.302
  H       93.946     374.339    -298.204

 3  4  5  6  7  8  9  10  11  12  13  23  28  29  30  31  32 0
 6-311+G(2d,p)
 ****
 33  34 0
 6-311+G(2d,p)
 ****
 1  2  14  15  16  17  18  19  20  21  22  24  25  26 0
 3-21G
 ****
 27  35  36  37  38  39  40  41  42  43  44  45 0
 3-21G
 ****


