%nproc=1
%NoSave
%Mem=1900MB
#P OB98/GEN NMR

erre ene a

0 1
  C       -2.307      -1.105      -4.391
  O       -2.200      -0.031      -3.475
  H       -3.361      -1.250      -4.642
  H       -1.924      -2.021      -3.933
  H       -1.752      -0.885      -5.306
  P       -0.719       0.492      -3.162
  C       -0.513      -1.220      -1.185
  O        0.047      -0.685      -2.377
  C        0.398      -2.304      -0.619
  O        0.543      -3.392      -1.552
  C        1.827      -1.851      -0.371
  O        1.942      -0.998       0.746
  C        2.520      -3.193      -0.182
  O        2.398      -3.668       1.164
  C        1.739      -4.106      -1.158
  N        2.550      -4.498      -2.296
  C        3.274      -5.687      -2.134
  O        3.179      -6.330      -1.089
  N        4.109      -6.089      -3.143
  C        4.234      -5.358      -4.206
  N        5.104      -5.797      -5.155
  C        3.491      -4.098      -4.415
  C        2.675      -3.730      -3.429
  O       -0.973       1.585      -2.022
  O        0.026       1.006      -4.346
  H        2.870      -4.526       1.196
  H       -1.541       1.272      -1.299
  H        3.621      -3.532      -5.326
  H        2.091      -2.820      -3.499
  H        1.403      -5.018      -0.647
  H        3.589      -3.129      -0.401
  H        2.236      -1.380      -1.275
  H       -0.062      -2.691       0.300
  H        5.633      -6.635      -4.946
  H       -1.512      -1.625      -1.379
  H        5.341      -5.274      -5.984
  H       -0.621      -0.398      -0.471
  P        2.953       0.243       0.747
  C        4.629      -1.139       2.132
  O        4.428      -0.364       0.956
  O        2.607       1.350       1.684
  O        2.991       0.680      -0.793
  H        3.294      -0.010      -1.407
  H        5.641      -1.487       2.162
  H        3.964      -1.977       2.125
  H        4.434      -0.536       2.994

 6  7  8  9  10  11  12  13  14  15  16  26  30  31  32  33  35 0
 6-311+G(2d,p)
 ****
 37  38 0
 6-311+G(2d,p)
 ****
 1  2  3  4  5  17  18  19  20  21  22  23  24  25 0
 3-21G
 ****
 27  28  29  34  36  39  40  41  42  43  44  45  46 0
 3-21G
 ****


