%nproc=1
%NoSave
%Mem=1900MB
#P OB98/GEN NMR

erre ene a

0 1
  C      626.626     385.523    -579.792
  O      625.491     384.798    -579.301
  P      625.435     384.393    -577.746
  C      622.992     383.570    -577.292
  O      624.357     383.231    -577.510
  C      622.229     383.712    -578.610
  O      622.505     382.571    -579.473
  C      620.705     383.796    -578.456
  O      620.222     384.646    -579.514
  C      620.269     382.362    -578.696
  O      618.901     382.242    -579.048
  C      621.238     381.971    -579.818
  N      621.385     380.530    -580.007
  C      620.561     379.910    -580.944
  O      619.677     380.482    -581.576
  N      620.762     378.560    -581.113
  C      621.663     377.782    -580.429
  O      621.770     376.578    -580.610
  C      622.484     378.487    -579.436
  C      622.312     379.800    -579.279
  O      624.702     385.665    -577.100
  O      626.762     384.176    -577.092
  H      618.725     381.293    -579.209
  H      625.170     385.944    -576.296
  H      620.184     378.102    -581.794
  H      623.205     377.907    -578.888
  H      622.914     380.342    -578.557
  H      620.919     382.427    -580.756
  H      620.431     381.775    -577.786
  H      620.394     384.191    -577.488
  H      622.611     384.601    -579.130
  H      622.947     384.526    -576.746
  H      622.531     382.799    -576.663
  P      619.556     386.056    -579.116
  C      621.129     387.746    -580.338
  O      619.889     387.082    -580.297
  O      620.543     386.520    -577.945
  O      618.128     385.967    -578.684
  H      621.483     386.382    -578.171
  H      621.953     387.083    -580.073
  H      621.113     388.597    -579.664
  H      621.298     388.107    -581.357
  H      626.504     385.710    -580.838
  H      627.513     384.946    -579.634
  H      626.708     386.454    -579.270

 3  4  5  6  7  8  9  10  11  12  13  23  28  29  30  31  32 0
 6-311+G(2d,p)
 ****
 33  34 0
 6-311+G(2d,p)
 ****
 1  2  14  15  16  17  18  19  20  21  22  24  25  26 0
 3-21G
 ****
 27  35  36  37  38  39  40  41  42  43  44  45 0
 3-21G
 ****


