%nproc=1
%NoSave
%Mem=1900MB
#P OB98/GEN NMR

erre ene a

0 1
  C     -890.080    -193.238     300.986
  O     -891.390    -193.538     300.485
  P     -892.650    -193.238     301.426
  C     -894.030    -192.389     299.409
  O     -893.960    -193.299     300.513
  C     -894.900    -192.943     298.288
  O     -894.270    -194.055     297.618
  C     -896.240    -193.464     298.767
  O     -897.120    -192.403     299.113
  C     -896.670    -194.323     297.597
  O     -897.270    -193.529     296.563
  C     -895.330    -194.908     297.089
  N     -895.110    -196.291     297.469
  C     -895.610    -197.233     296.580
  O     -896.220    -196.898     295.554
  N     -895.420    -198.573     296.870
  C     -894.790    -198.926     297.949
  N     -894.640    -200.261     298.178
  C     -894.260    -197.933     298.911
  C     -894.460    -196.661     298.616
  O     -892.540    -192.048     302.318
  O     -892.760    -194.611     302.288
  H     -897.440    -194.151     295.808
  H     -893.150    -194.389     303.147
  H     -893.730    -198.292     299.799
  H     -894.090    -195.882     299.278
  H     -895.270    -194.840     296.006
  H     -897.410    -195.085     297.881
  H     -896.080    -194.118     299.664
  H     -895.060    -192.148     297.558
  H     -895.010    -200.900     297.495
  H     -893.010    -192.218     299.031
  H     -894.110    -200.621     298.954
  H     -894.390    -191.431     299.772
  P     -897.120    -191.879     300.628
  C     -898.920    -190.082     300.041
  O     -898.530    -191.166     300.883
  O     -896.090    -190.648     300.567
  O     -896.710    -192.883     301.645
  H     -895.610    -190.591     301.413
  H     -900.000    -189.932     300.142
  H     -898.700    -190.305     298.994
  H     -898.400    -189.175     300.348
  H     -889.349    -193.492     300.247
  H     -889.900    -193.805     301.876
  H     -890.014    -192.194     301.209

 3  4  5  6  7  8  9  10  11  12  13  23  27  28  29  30  32 0
 6-311+G(2d,p)
 ****
 34  35 0
 6-311+G(2d,p)
 ****
 1  2  14  15  16  17  18  19  20  21  22  24  25  26 0
 3-21G
 ****
 31  33  36  37  38  39  40  41  42  43  44  45  46 0
 3-21G
 ****


