%nproc=1
%NoSave
%Mem=1900MB
#P OB98/GEN NMR

erre ene a

0 1
  C     -375.785     -40.036     311.217
  O     -374.771     -39.695     312.170
  P     -374.930     -40.315     313.638
  C     -374.783     -38.240     315.200
  O     -374.121     -39.381     314.665
  C     -373.762     -37.140     315.504
  O     -373.230     -36.556     314.298
  C     -374.347     -35.976     316.293
  O     -374.543     -36.325     317.655
  C     -373.287     -34.906     316.052
  O     -372.158     -35.114     316.921
  C     -372.880     -35.177     314.593
  N     -372.463     -30.801     311.986
  C     -371.634     -31.409     312.865
  N     -371.819     -32.576     313.518
  C     -372.999     -33.127     313.183
  C     -373.938     -32.630     312.301
  C     -373.635     -31.397     311.687
  N     -374.480     -30.771     310.798
  N     -375.020     -33.476     312.205
  C     -374.749     -34.459     313.040
  N     -373.533     -34.300     313.643
  O     -374.056     -41.652     313.573
  O     -376.349     -40.594     314.024
  H     -371.496     -34.425     316.706
  H     -374.642     -42.431     313.572
  H     -370.703     -30.888     313.073
  H     -375.401     -35.304     313.239
  H     -371.802     -35.075     314.445
  H     -373.659     -33.888     316.233
  H     -375.303     -35.661     315.855
  H     -372.934     -37.591     316.070
  H     -375.323     -38.505     316.113
  H     -374.225     -29.853     310.463
  H     -375.399     -31.164     310.633
  H     -375.526     -37.892     314.473
  P     -375.827     -35.730     318.405
  C     -374.196     -34.546     319.999
  O     -375.294     -35.431     319.894
  O     -376.718     -37.044     318.607
  O     -376.494     -34.591     317.707
  H     -376.184     -37.794     318.934
  H     -373.962     -34.404     321.054
  H     -374.449     -33.579     319.558
  H     -373.323     -34.967     319.492
  H     -375.568     -39.564     310.281
  H     -376.737     -39.701     311.573
  H     -375.807     -41.098     311.084

 3  4  5  6  7  8  9  10  11  12  22  25  29  30  31  32 0
 6-311+G(2d,p)
 ****
 33  36  37 0
 6-311+G(2d,p)
 ****
 1  2  13  14  15  16  17  18  19  20  21  23  24  26 0
 3-21G
 ****
 27  28  34  35  38  39  40  41  42  43  44  45  46  47  48 0
 3-21G
 ****


