%nproc=1
%NoSave
%Mem=1900MB
#P OB98/GEN NMR

erre ene a

0 1
  C     -226.980     571.249    -877.496
  O     -227.431     569.939    -877.841
  P     -228.952     569.736    -878.290
  C     -228.189     569.401    -880.744
  O     -229.070     570.116    -879.856
  C     -228.153     570.090    -882.115
  O     -227.712     571.471    -882.015
  C     -227.176     569.435    -883.082
  O     -227.702     568.210    -883.567
  C     -226.998     570.523    -884.122
  O     -228.074     570.525    -885.069
  C     -227.060     571.813    -883.252
  N     -225.767     572.423    -883.034
  C     -225.305     573.281    -884.043
  O     -225.959     573.428    -885.065
  N     -224.085     573.908    -883.868
  C     -223.394     573.695    -882.792
  N     -222.213     574.344    -882.671
  C     -223.848     572.801    -881.704
  C     -225.033     572.204    -881.881
  O     -229.981     570.378    -877.420
  O     -229.110     568.139    -878.306
  H     -227.986     571.338    -885.599
  H     -230.039     567.917    -878.094
  H     -223.235     572.687    -880.807
  H     -225.437     571.535    -881.142
  H     -227.713     572.577    -883.741
  H     -226.071     570.417    -884.679
  H     -226.213     569.254    -882.570
  H     -229.175     570.070    -882.544
  H     -221.924     574.953    -883.440
  H     -228.548     568.372    -880.860
  H     -221.630     574.305    -881.837
  H     -227.193     569.356    -880.290
  P     -227.216     566.860    -882.860
  C     -229.300     566.416    -881.376
  O     -227.935     566.764    -881.424
  O     -225.677     567.145    -882.493
  O     -227.327     565.619    -883.715
  H     -225.152     566.351    -882.575
  H     -229.534     566.103    -880.357
  H     -229.533     565.608    -882.069
  H     -229.914     567.300    -881.609
  H     -225.947     571.210    -877.221
  H     -227.554     571.619    -876.672
  H     -227.101     571.901    -878.336

 3  4  5  6  7  8  9  10  11  12  13  23  27  28  29  30  32 0
 6-311+G(2d,p)
 ****
 34  35 0
 6-311+G(2d,p)
 ****
 1  2  14  15  16  17  18  19  20  21  22  24  25  26 0
 3-21G
 ****
 31  33  36  37  38  39  40  41  42  43  44  45  46 0
 3-21G
 ****


