%nproc=1
%NoSave
%Mem=1900MB
#P OB98/GEN NMR

erre ene a

0 1
  C      289.322     154.380     296.505
  O      287.982     153.917     296.482
  P      286.831     154.866     297.075
  C      287.180     153.740     299.427
  O      287.067     154.930     298.658
  C      286.363     153.863     300.720
  O      287.098     154.689     301.665
  C      284.973     154.497     300.535
  O      284.091     153.852     301.463
  C      285.209     155.943     300.946
  O      284.012     156.601     301.331
  C      286.222     155.761     302.078
  N      286.995     156.971     302.372
  C      286.496     157.841     303.343
  O      285.439     157.662     303.941
  N      287.253     158.967     303.574
  C      288.391     159.320     302.909
  O      289.018     160.353     303.145
  C      288.843     158.389     301.865
  C      288.141     157.273     301.655
  O      285.543     153.940     296.905
  O      286.740     156.195     296.400
  H      285.733     152.994     297.050
  H      283.570     156.050     302.005
  H      286.934     159.591     304.295
  H      289.730     158.649     301.305
  H      288.450     156.565     300.887
  H      285.711     155.419     302.991
  H      285.641     156.494     300.100
  H      284.590     154.383     299.520
  H      286.276     152.860     301.162
  H      288.231     153.578     299.679
  H      286.832     152.891     298.829
  P      282.730     153.196     300.895
  C      281.192     155.240     301.471
  O      281.758     154.403     300.485
  O      282.079     152.653     302.256
  O      282.931     152.121     299.875
  H      282.078     153.324     302.965
  H      280.853     156.166     300.999
  H      281.927     155.490     302.247
  H      280.335     154.738     301.922
  H      289.963     153.638     296.077
  H      289.617     154.567     297.516
  H      289.397     155.285     295.939

 3  4  5  6  7  8  9  10  11  12  13  24  28  29  30  31  32 0
 6-311+G(2d,p)
 ****
 33  34 0
 6-311+G(2d,p)
 ****
 1  2  14  15  16  17  18  19  20  21  22  23  25  26  27 0
 3-21G
 ****
 35  36  37  38  39  40  41  42  43  44  45 0
 3-21G
 ****


