%nproc=1
%NoSave
%Mem=1900MB
#P OB98/GEN NMR

erre ene a

0 1
  C        0.902     665.580     -81.327
  O        0.482     665.813     -82.657
  H        0.455     666.339     -80.684
  H        1.993     665.659     -81.245
  H        0.570     664.591     -80.980
  P        0.923     664.775     -83.802
  C       -1.346     663.702     -84.360
  O       -0.342     664.612     -84.788
  C       -2.649     663.963     -85.078
  O       -3.045     665.326     -84.858
  C       -2.572     663.746     -86.611
  O       -3.801     663.174     -87.048
  C       -2.451     665.166     -87.154
  O       -2.936     665.267     -88.487
  C       -3.251     665.965     -86.139
  N       -4.810     670.769     -86.615
  C       -5.518     669.603     -86.632
  N       -6.871     669.690     -86.837
  N       -4.980     668.394     -86.466
  C       -3.635     668.445     -86.257
  C       -2.817     669.542     -86.232
  C       -3.430     670.845     -86.423
  O       -2.827     671.932     -86.429
  N       -1.505     669.168     -86.025
  C       -1.553     667.838     -85.942
  N       -2.826     667.363     -86.100
  O        1.504     663.486     -83.314
  O        1.966     665.603     -84.689
  H       -3.882     664.997     -88.463
  H        2.880     665.367     -84.467
  H       -5.263     671.665     -86.757
  H       -0.693     667.219     -85.765
  H       -4.340     665.987     -86.357
  H       -1.391     665.457     -87.144
  H       -7.354     670.572     -86.970
  H       -1.737     663.107     -86.907
  H       -7.411     668.853     -86.840
  H       -3.445     663.333     -84.635
  H       -1.478     663.813     -83.287
  H       -1.014     662.671     -84.549
  P       -3.782     661.866     -87.951
  C       -3.857     660.093     -86.057
  O       -4.548     660.683     -87.180
  O       -2.430     661.469     -88.480
  O       -4.789     662.205     -89.152
  H       -4.515     661.741     -89.943
  H       -4.464     659.323     -85.629
  H       -3.665     660.846     -85.321
  H       -2.930     659.674     -86.389

 6  7  8  9  10  11  12  13  14  15  26  29  33  34 0
 6-311+G(2d,p)
 ****
 36  38  39  40  41 0
 6-311+G(2d,p)
 ****
 1  2  3  4  5  16  17  18  19  20  21  22  23  24  25 0
 3-21G
 ****
 27  28  30  31  32  35  37  42  43  44  45  46  47 0
 3-21G
 ****
 48  49 0
 3-21G
 ****


