%nproc=1
%NoSave
%Mem=1900MB
#P OB98/GEN NMR

erre ene a

0 1
  C     1000.359     378.583     616.701
  O     1001.406     378.928     617.614
  P     1002.800     378.147     617.484
  C     1002.217     376.622     619.507
  O     1003.117     377.576     618.950
  C     1002.850     375.927     620.705
  O     1004.020     375.192     620.301
  C     1003.333     376.890     621.804
  O     1002.282     377.320     622.649
  C     1004.320     375.992     622.557
  O     1003.587     375.163     623.478
  C     1004.929     375.130     621.432
  N     1009.845     375.462     622.617
  C     1008.800     374.899     623.323
  N     1009.102     374.309     624.498
  N     1007.556     374.905     622.903
  C     1007.398     375.496     621.698
  C     1008.353     376.112     620.922
  C     1009.720     376.123     621.411
  O     1010.665     376.674     620.856
  N     1007.809     376.574     619.754
  C     1006.533     376.231     619.803
  N     1006.236     375.599     620.991
  O     1003.854     379.328     617.298
  O     1002.875     377.163     616.363
  H     1002.859     374.740     622.966
  H     1004.656     378.995     616.826
  H     1010.789     375.414     622.977
  H     1005.811     376.409     619.028
  H     1005.008     374.090     621.727
  H     1005.048     376.554     623.144
  H     1010.055     374.156     624.801
  H     1003.888     377.732     621.370
  H     1008.357     373.843     625.001
  H     1002.120     375.218     621.119
  H     1001.986     375.863     618.749
  H     1001.299     377.123     619.799
  P     1002.020     378.908     622.690
  C     1004.279     379.356     623.891
  O     1002.869     379.423     623.948
  O     1000.491     379.009     623.180
  O     1002.254     379.615     621.392
  H     1000.101     379.840     622.883
  H     1004.658     379.574     622.887
  H     1004.615     378.365     624.205
  H     1004.696     380.103     624.575
  H      999.496     379.181     616.906
  H     1000.112     377.548     616.816
  H     1000.687     378.762     615.698

 3  4  5  6  7  8  9  10  11  12  23  26  30  31  33  0
 6-311+G(2d,p)
 ****
 35  36  37  38 0
 6-311+G(2d,p)
 ****
 1  2  13  14  15  16  17  18  19  20  21  22  24  25  27  28  29 0
 3-21G
 ****
 32  34  39  40  41  42  43  44  45  46  47  48  49 0
 3-21G
 ****


