%nproc=1
%NoSave
%Mem=1900MB
#P OB98/GEN NMR

erre ene a

0 1
  C     -519.230    -752.983    -489.714
  O     -519.336    -751.810    -488.910
  P     -520.339    -751.875    -487.648
  C     -518.760    -750.961    -485.783
  O     -519.414    -752.082    -486.356
  C     -517.273    -751.295    -485.550
  O     -516.608    -751.543    -486.797
  C     -516.493    -750.189    -484.841
  O     -516.698    -750.225    -483.447
  C     -515.069    -750.508    -485.265
  O     -514.516    -751.566    -484.450
  C     -515.261    -750.996    -486.708
  N     -511.878    -747.967    -488.966
  C     -511.750    -748.787    -487.852
  N     -510.526    -748.832    -487.289
  N     -512.719    -749.492    -487.345
  C     -513.895    -749.330    -487.999
  C     -514.155    -748.554    -489.108
  C     -513.064    -747.822    -489.695
  O     -513.113    -747.164    -490.737
  N     -515.471    -748.638    -489.483
  C     -516.001    -749.504    -488.638
  N     -515.073    -749.968    -487.719
  O     -521.066    -753.281    -487.825
  O     -521.292    -750.728    -487.543
  H     -513.627    -751.788    -484.779
  H     -521.949    -753.153    -488.255
  H     -511.095    -747.468    -489.330
  H     -517.031    -749.829    -488.630
  H     -514.571    -751.811    -486.975
  H     -514.401    -749.659    -485.164
  H     -509.729    -748.299    -487.601
  H     -516.776    -749.206    -485.261
  H     -510.397    -749.420    -486.475
  H     -517.234    -752.227    -484.956
  H     -519.232    -750.723    -484.825
  H     -518.845    -750.093    -486.458
  P     -517.355    -748.937    -482.750
  C     -519.015    -750.536    -481.519
  O     -518.840    -749.347    -482.294
  O     -517.604    -747.939    -483.992
  O     -516.511    -748.305    -481.702
  H     -517.450    -747.017    -483.701
  H     -519.874    -750.415    -480.881
  H     -518.130    -750.735    -480.921
  H     -519.188    -751.376    -482.213
  H     -518.538    -752.808    -490.511
  H     -520.190    -753.224    -490.122
  H     -518.883    -753.797    -489.113

 3  4  5  6  7  8  9  10  11  12  23  26  30  31 0
 6-311+G(2d,p)
 ****
 33  35  36  37  38 0
 6-311+G(2d,p)
 ****
 1  2  13  14  15  16  17  18  19  20  21  22  24  25 0
 3-21G
 ****
 27  28  29  32  34  39  40  41  42  43  44  45  46  47  48  49 0
 3-21G
 ****


