%nproc=1
%NoSave
%Mem=1900MB
#P OB98/GEN NMR

erre ene a

0 1
  C     -292.547    -186.676    -133.659
  O     -291.607    -185.764    -134.200
  H     -292.166    -187.084    -132.719
  H     -293.482    -186.152    -133.467
  H     -292.746    -187.496    -134.360
  P     -290.274    -186.378    -134.843
  C     -288.751    -186.199    -132.743
  O     -289.464    -187.057    -133.629
  C     -288.276    -186.983    -131.511
  O     -287.669    -188.228    -131.963
  C     -287.230    -186.240    -130.659
  O     -287.491    -186.507    -129.281
  C     -285.919    -186.914    -131.052
  O     -284.924    -186.825    -130.037
  C     -286.397    -188.346    -131.323
  N     -283.137    -192.257    -131.441
  C     -284.139    -191.937    -130.595
  N     -284.995    -190.898    -130.669
  C     -284.792    -190.184    -131.791
  C     -283.808    -190.384    -132.751
  C     -282.944    -191.478    -132.543
  N     -281.879    -191.763    -133.364
  N     -283.885    -189.402    -133.725
  C     -284.867    -188.607    -133.333
  N     -285.444    -189.043    -132.172
  O     -289.415    -185.061    -135.177
  O     -290.468    -187.231    -136.043
  H     -285.042    -187.564    -129.409
  H     -289.655    -184.732    -136.064
  H     -284.256    -192.607    -129.733
  H     -285.176    -187.710    -133.847
  H     -286.506    -188.928    -130.408
  H     -285.528    -186.448    -131.965
  H     -287.202    -185.156    -130.829
  H     -289.147    -187.248    -130.908
  H     -289.422    -185.395    -132.409
  H     -281.246    -192.496    -133.075
  H     -281.658    -191.135    -134.121
  H     -287.900    -185.762    -133.265
  P     -288.557    -185.572    -128.537
  C     -286.735    -184.337    -127.134
  O     -287.819    -184.223    -128.058
  O     -288.843    -186.348    -127.155
  O     -289.824    -185.351    -129.310
  H     -289.770    -186.208    -126.863
  H     -286.351    -183.363    -126.913
  H     -285.961    -184.937    -127.565
  H     -287.082    -184.797    -126.232

 6  7  8  9  10  11  12  13  14  15  25  28  32  33  34  35 0
 6-311+G(2d,p)
 ****
 36  39  40 0
 6-311+G(2d,p)
 ****
 1  2  3  4  5  16  17  18  19  20  21  22  23  24 0
 3-21G
 ****
 26  27  29  30  31  37  38  41  42  43  44  45  46  47 0
 3-21G
 ****
 48 0
 3-21G
 ****


