%nproc=1
%NoSave
%Mem=1900MB
#P OB98/GEN NMR

erre ene a

0 1
  C      119.863    -285.312     190.322
  O      119.555    -285.635     191.664
  H      120.949    -285.294     190.205
  H      119.466    -284.322     190.082
  H      119.448    -286.057     189.637
  P      118.034    -286.039     191.980
  C      118.615    -288.281     190.812
  O      117.665    -287.240     190.981
  C      118.139    -289.264     189.746
  O      119.246    -290.051     189.255
  C      117.089    -290.259     190.232
  O      115.782    -289.698     190.195
  C      117.240    -291.357     189.194
  O      116.590    -290.959     187.967
  C      118.760    -291.397     188.992
  N      119.432    -296.278     190.200
  C      118.568    -295.703     189.287
  N      117.764    -296.545     188.606
  N      118.495    -294.415     189.065
  C      119.341    -293.691     189.836
  C      120.238    -294.145     190.778
  C      120.320    -295.570     191.000
  O      121.076    -296.132     191.789
  N      120.925    -293.113     191.358
  C      120.428    -292.035     190.786
  N      119.464    -292.330     189.857
  O      117.209    -284.794     191.398
  O      117.724    -286.270     193.420
  H      116.499    -291.762     187.419
  H      116.935    -284.223     192.142
  H      119.442    -297.274     190.339
  H      120.741    -291.021     191.002
  H      119.036    -291.650     187.962
  H      116.779    -292.296     189.505
  H      117.754    -297.544     188.743
  H      117.333    -290.654     191.226
  H      117.127    -296.145     187.929
  H      117.755    -288.681     188.899
  H      118.742    -288.809     191.763
  H      119.574    -287.843     190.513
  P      114.629    -290.405     191.055
  C      115.233    -289.127     193.229
  O      115.109    -290.389     192.588
  O      114.773    -291.943     190.635
  O      113.249    -289.901     190.807
  H      113.995    -292.221     190.112
  H      115.558    -289.270     194.238
  H      114.285    -288.631     193.227
  H      115.949    -288.529     192.705

 6  7  8  9  10  11  12  13  14  15  26  29  33  34 0
 6-311+G(2d,p)
 ****
 36  38  39  40  41 0
 6-311+G(2d,p)
 ****
 1  2  3  4  5  16  17  18  19  20  21  22  23  24  25 0
 3-21G
 ****
 27  28  30  31  32  35  37  42  43  44  45  46  47 0
 3-21G
 ****
 48  49 0
 3-21G
 ****


