%nproc=1
%NoSave
%Mem=1900MB
#P OB98/GEN NMR

erre ene a

0 1
  C      -41.899     174.987    -343.137
  O      -42.829     175.416    -344.112
  H      -42.241     174.037    -342.717
  H      -41.849     175.726    -342.333
  H      -40.908     174.844    -343.576
  P      -42.351     176.560    -345.128
  C      -42.579     175.055    -347.231
  O      -43.021     176.220    -346.548
  C      -43.595     174.645    -348.299
  O      -44.706     173.960    -347.644
  C      -44.176     175.823    -349.098
  O      -44.373     175.407    -350.457
  C      -45.539     176.020    -348.460
  O      -46.457     176.672    -349.332
  C      -45.912     174.577    -348.133
  N      -50.555     176.246    -347.213
  C      -49.788     176.312    -348.359
  N      -50.311     176.977    -349.412
  N      -48.602     175.773    -348.467
  C      -48.206     175.119    -347.347
  C      -48.866     174.986    -346.150
  C      -50.173     175.603    -346.038
  O      -50.890     175.599    -345.042
  N      -48.101     174.304    -345.239
  C      -46.973     174.042    -345.880
  N      -46.988     174.519    -347.161
  O      -40.802     176.207    -345.348
  O      -42.541     177.960    -344.651
  H      -47.334     176.684    -348.898
  H      -40.255     176.735    -344.736
  H      -51.456     176.693    -347.177
  H      -46.116     173.535    -345.458
  H      -46.250     174.021    -349.017
  H      -45.444     176.621    -347.548
  H      -51.228     177.393    -349.415
  H      -43.557     176.725    -349.074
  H      -49.774     176.997    -350.272
  H      -43.122     173.917    -348.970
  H      -42.468     174.236    -346.512
  H      -41.604     175.253    -347.690
  P      -44.588     176.542    -351.569
  C      -42.462     175.924    -352.937
  O      -43.874     176.068    -352.926
  O      -43.649     177.731    -351.056
  O      -46.006     176.986    -351.711
  H      -44.055     178.593    -351.275
  H      -42.144     175.604    -353.907
  H      -42.172     175.196    -352.209
  H      -42.006     176.863    -352.704

 6  7  8  9  10  11  12  13  14  15  26  29  33  34 0
 6-311+G(2d,p)
 ****
 36  38  39  40  41 0
 6-311+G(2d,p)
 ****
 1  2  3  4  5  16  17  18  19  20  21  22  23  24  25 0
 3-21G
 ****
 27  28  30  31  32  35  37  42  43  44  45  46  47 0
 3-21G
 ****
 48  49 0
 3-21G
 ****


