%nproc=1
%NoSave
%Mem=1900MB
#P OB98/GEN NMR

erre ene a

0 1
  C      168.359    -125.839      61.948
  O      169.442    -126.575      62.534
  P      170.902    -126.354      61.912
  C      173.329    -126.543      62.857
  O      171.983    -127.005      62.905
  C      174.104    -127.038      64.079
  O      173.380    -126.762      65.294
  C      174.329    -128.541      64.077
  O      175.383    -128.886      63.203
  C      174.629    -128.816      65.553
  O      176.039    -128.715      65.829
  C      173.839    -127.707      66.283
  N      172.735    -128.231      67.070
  C      173.085    -129.099      68.109
  O      174.265    -129.395      68.306
  N      172.085    -129.626      68.890
  C      170.840    -129.334      68.628
  N      169.893    -129.892      69.432
  C      170.433    -128.443      67.520
  C      171.419    -127.936      66.792
  O      171.144    -124.781      62.086
  O      171.021    -126.782      60.483
  H      176.291    -127.811      65.577
  H      171.688    -124.442      61.353
  H      169.383    -128.240      67.336
  H      171.207    -127.276      65.955
  H      174.505    -127.154      66.960
  H      174.329    -129.834      65.837
  H      173.404    -129.064      63.788
  H      175.070    -126.513      64.118
  H      170.208    -130.495      70.179
  H      173.351    -125.449      62.814
  H      168.897    -129.738      69.315
  H      173.791    -126.903      61.922
  P      175.068    -129.904      62.015
  C      176.007    -130.175      59.634
  O      176.249    -129.691      60.946
  O      173.827    -129.196      61.280
  O      174.757    -131.322      62.381
  H      173.470    -129.776      60.579
  H      176.793    -129.782      58.967
  H      175.039    -129.833      59.278
  H      176.050    -131.265      59.623
  H      167.448    -126.080      62.456
  H      168.270    -126.098      60.914
  H      168.551    -124.790      62.038

 3  4  5  6  7  8  9  10  11  12  13  21  23  27  28  29  30  32 0
 6-311+G(2d,p)
 ****
 34  35 0
 6-311+G(2d,p)
 ****
 1  2  14  15  16  17  18  19  20  22  24  25  26 0
 3-21G
 ****
 31  33  36  37  38  39  40  41  42  43  44  45  46 0
 3-21G
 ****


