%nproc=1
%NoSave
%Mem=1900MB
#P OB98/GEN NMR

erre ene a

0 1
  C      -85.617     -25.564    -380.768
  O      -86.688     -24.678    -381.043
  H      -85.943     -26.281    -380.009
  H      -84.755     -25.014    -380.381
  H      -85.331     -26.112    -381.671
  P      -86.459     -23.522    -382.126
  C      -88.957     -23.300    -382.749
  O      -87.821     -22.675    -382.165
  C      -90.232     -22.584    -382.313
  O      -90.604     -22.988    -380.974
  C      -90.108     -21.059    -382.279
  O      -90.266     -20.521    -383.582
  C      -91.257     -20.708    -381.339
  O      -92.505     -20.805    -382.049
  C      -91.153     -21.828    -380.289
  N      -90.427     -18.758    -376.310
  C      -91.396     -18.723    -377.293
  N      -92.278     -17.698    -377.232
  N      -91.488     -19.604    -378.261
  C      -90.498     -20.526    -378.236
  C      -89.473     -20.654    -377.328
  C      -89.416     -19.713    -376.229
  O      -88.582     -19.711    -375.328
  N      -88.619     -21.675    -377.666
  C      -89.155     -22.192    -378.758
  N      -90.290     -21.515    -379.153
  O      -85.986     -23.964    -383.481
  O      -85.422     -22.527    -381.420
  H      -92.683     -19.916    -382.411
  H      -84.500     -22.754    -381.653
  H      -90.406     -18.040    -375.607
  H      -88.767     -23.047    -379.298
  H      -92.128     -22.114    -379.889
  H      -91.187     -19.702    -380.937
  H      -92.089     -16.860    -376.694
  H      -89.161     -20.739    -381.805
  H      -92.971     -17.630    -377.966
  H      -91.047     -22.898    -382.985
  H      -88.973     -24.342    -382.411
  H      -88.881     -23.287    -383.837
  P      -89.639     -19.093    -383.970
  C      -89.414     -19.720    -386.467
  O      -90.038     -18.870    -385.505
  O      -88.177     -18.944    -383.674
  O      -90.562     -18.032    -383.212
  H      -90.260     -17.823    -382.290
  H      -89.765     -19.469    -387.446
  H      -89.656     -20.740    -386.252
  H      -88.353     -19.589    -386.424

 6  7  8  9  10  11  12  13  14  15  26  29  33  34 0
 6-311+G(2d,p)
 ****
 36  38  39  40  41 0
 6-311+G(2d,p)
 ****
 1  2  3  4  5  16  17  18  19  20  21  22  23  24  25 0
 3-21G
 ****
 27  28  30  31  32  35  37  42  43  44  45  46  47 0
 3-21G
 ****
 48  49 0
 3-21G
 ****


