%nproc=1
%NoSave
%Mem=1900MB
#P OB98/GEN NMR

erre ene a

0 1
  C      100.840      11.179       2.012
  O      101.387      11.023       3.302
  P      102.485      11.997       3.922
  C      104.520      10.915       2.688
  O      103.728      12.075       2.913
  C      105.787      11.260       1.892
  O      105.394      11.941       0.673
  C      106.698      12.224       2.670
  O      108.083      11.917       2.579
  C      106.252      13.592       2.167
  O      107.212      14.616       2.379
  C      105.908      13.290       0.712
  N      104.716      18.084      -0.475
  C      105.932      17.564      -0.080
  N      106.897      18.464       0.208
  N      106.159      16.283       0.054
  C      105.067      15.512      -0.159
  C      103.812      15.915      -0.556
  C      103.583      17.330      -0.732
  O      102.492      17.843      -0.972
  N      102.934      14.865      -0.607
  C      103.647      13.829      -0.209
  N      104.938      14.181       0.108
  O      102.772      11.839       5.381
  O      101.794      13.442       3.715
  H      108.020      14.367       1.894
  H      102.060      14.000       4.473
  H      104.578      19.089      -0.483
  H      103.273      12.817      -0.101
  H      106.793      13.330       0.074
  H      105.357      13.874       2.731
  H      106.706      19.454       0.256
  H      106.495      12.160       3.744
  H      107.700      18.126       0.732
  H      106.299      10.334       1.608
  H      103.893      10.221       2.116
  H      104.776      10.434       3.633
  P      109.123      11.625       3.753
  C      110.346      13.846       3.365
  O      109.679      13.023       4.303
  O      110.402      10.995       3.028
  O      108.623      10.699       4.813
  H      110.768      10.276       3.578
  H      110.905      14.614       3.908
  H      109.613      14.332       2.716
  H      111.044      13.259       2.759
  H      100.127      10.402       1.831
  H      101.622      11.123       1.284
  H      100.356      12.131       1.943

 3  4  5  6  7  8  9  10  11  12  23  26  30  31 0
 6-311+G(2d,p)
 ****
 33  35  36  37  38 0
 6-311+G(2d,p)
 ****
 1  2  13  14  15  16  17  18  19  20  21  22  24  25 0
 3-21G
 ****
 27  28  29  32  34  39  40  41  42  43  44  45  46  47  48  49 0
 3-21G
 ****


