%nproc=1
%NoSave
%Mem=1900MB
#P OB98/GEN NMR

erre ene a

0 1
  C     -190.473       2.030    -112.307
  O     -190.349       3.452    -112.379
  P     -189.554       4.169    -111.182
  C     -188.456       5.958    -112.704
  O     -189.294       5.702    -111.586
  C     -189.263       6.151    -113.993
  O     -190.227       7.227    -113.846
  C     -188.398       6.480    -115.212
  O     -189.021       5.887    -116.353
  C     -188.521       7.989    -115.319
  O     -188.195       8.441    -116.631
  C     -189.986       8.185    -114.897
  N     -190.284       9.549    -114.466
  C     -190.661      10.461    -115.453
  O     -190.667      10.122    -116.640
  N     -190.985      11.743    -115.086
  C     -190.885      12.097    -113.843
  N     -191.215      13.383    -113.542
  C     -190.432      11.188    -112.775
  C     -190.155       9.942    -113.156
  O     -188.100       3.504    -111.253
  O     -190.182       3.965    -109.841
  H     -188.825       8.026    -117.261
  H     -187.831       3.196    -110.368
  H     -190.344      11.535    -111.756
  H     -189.819       9.200    -112.445
  H     -190.661       7.943    -115.729
  H     -187.848       8.476    -114.604
  H     -187.368       6.125    -115.125
  H     -189.827       5.230    -114.180
  H     -191.529      13.976    -114.302
  H     -187.758       5.128    -112.841
  H     -191.174      13.768    -112.610
  H     -187.840       6.837    -112.490
  P     -188.447       4.493    -116.894
  C     -190.848       3.586    -116.996
  O     -189.661       3.843    -117.719
  O     -188.461       3.601    -115.558
  O     -187.106       4.477    -117.542
  H     -188.062       2.732    -115.739
  H     -191.623       3.266    -117.697
  H     -191.188       4.493    -116.484
  H     -190.679       2.785    -116.270
  H     -191.019       1.676    -113.156
  H     -190.994       1.762    -111.411
  H     -189.499       1.587    -112.299

 3  4  5  6  7  8  9  10  11  12  13  21  23  27  28  29  30  32 0
 6-311+G(2d,p)
 ****
 34  35 0
 6-311+G(2d,p)
 ****
 1  2  14  15  16  17  18  19  20  22  24  25  26 0
 3-21G
 ****
 31  33  36  37  38  39  40  41  42  43  44  45  46 0
 3-21G
 ****


