%nproc=1
%NoSave
%Mem=1900MB
#P OB98/GEN NMR

erre ene a

0 1
  C     -970.437    -899.361    -763.199
  O     -971.104    -898.261    -762.599
  P     -972.347    -898.551    -761.634
  C     -972.479    -896.241    -760.435
  O     -973.103    -897.161    -761.321
  C     -973.448    -895.231    -759.861
  O     -973.845    -894.281    -760.887
  C     -974.753    -895.841    -759.336
  O     -974.804    -896.271    -757.960
  C     -975.720    -894.661    -759.454
  O     -975.590    -893.791    -758.289
  C     -975.246    -893.901    -760.686
  N     -979.852    -893.471    -762.861
  C     -979.374    -893.051    -761.679
  N     -978.130    -893.211    -761.159
  C     -977.354    -893.841    -762.061
  C     -977.704    -894.331    -763.284
  C     -979.016    -894.121    -763.702
  N     -979.516    -894.561    -764.920
  N     -976.600    -894.971    -763.901
  C     -975.638    -894.891    -763.030
  N     -976.040    -894.221    -761.882
  O     -972.069    -899.391    -760.427
  O     -973.377    -899.281    -762.624
  H     -976.220    -893.051    -758.427
  H     -973.847    -899.991    -762.111
  H     -980.064    -892.511    -761.028
  H     -974.639    -895.321    -763.157
  H     -975.245    -892.821    -760.582
  H     -976.748    -894.971    -759.477
  H     -975.094    -896.641    -759.988
  H     -972.964    -894.651    -759.064
  H     -971.688    -895.711    -760.993
  H     -980.499    -894.401    -765.108
  H     -978.905    -895.121    -765.514
  H     -971.944    -896.821    -759.692
  P     -974.135    -897.661    -757.517
  C     -973.038    -896.781    -755.261
  O     -974.054    -897.571    -755.907
  O     -972.836    -898.001    -758.175
  O     -975.318    -898.711    -757.742
  H     -976.065    -898.601    -757.181
  H     -973.306    -896.711    -754.206
  H     -972.984    -895.801    -755.704
  H     -972.075    -897.311    -755.349
  H     -969.635    -899.002    -763.810
  H     -971.128    -899.910    -763.804
  H     -970.045    -900.000    -762.436

 3  4  5  6  7  8  9  10  11  12  22  25  29  30  31  32 0
 6-311+G(2d,p)
 ****
 33  36  37 0
 6-311+G(2d,p)
 ****
 1  2  13  14  15  16  17  18  19  20  21  23  24  26 0
 3-21G
 ****
 27  28  34  35  38  39  40  41  42  43  44  45  46  47  48 0
 3-21G
 ****


