%nproc=1
%NoSave
%Mem=1900MB
#P OB98/GEN NMR

erre ene a

0 1
  C      376.641    -251.116    -224.405
  O      376.736    -251.850    -225.615
  P      376.631    -253.444    -225.542
  C      378.261    -255.390    -226.169
  O      378.111    -254.018    -225.842
  C      379.548    -255.603    -226.984
  O      379.329    -255.151    -228.342
  C      380.778    -254.858    -226.454
  O      381.919    -255.680    -226.736
  C      380.814    -253.605    -227.298
  O      382.102    -252.983    -227.324
  C      380.337    -254.154    -228.629
  N      381.064    -251.306    -232.767
  C      381.920    -252.206    -232.140
  N      383.117    -252.407    -232.739
  N      381.638    -252.841    -231.034
  C      380.395    -252.547    -230.557
  C      379.470    -251.647    -231.060
  C      379.792    -250.989    -232.307
  O      379.033    -250.251    -232.940
  N      378.365    -251.561    -230.261
  C      378.586    -252.453    -229.310
  N      379.778    -253.116    -229.476
  O      375.813    -253.823    -226.857
  O      376.016    -254.010    -224.294
  H      381.976    -252.057    -227.573
  H      374.850    -253.901    -226.662
  H      381.335    -250.861    -233.625
  H      377.919    -252.674    -228.488
  H      381.140    -254.647    -229.203
  H      380.102    -252.864    -226.896
  H      383.394    -251.970    -233.609
  H      380.732    -254.643    -225.368
  H      383.755    -253.083    -232.318
  H      379.741    -256.686    -227.029
  H      377.404    -255.709    -226.786
  H      378.262    -255.993    -225.256
  P      383.336    -255.243    -226.109
  C      385.542    -254.252    -227.014
  O      384.173    -254.500    -227.251
  O      384.098    -256.652    -225.951
  O      383.246    -254.537    -224.792
  H      384.688    -256.626    -225.171
  H      386.056    -254.113    -227.983
  H      386.031    -255.070    -226.481
  H      385.647    -253.323    -226.437
  H      376.728    -250.070    -224.614
  H      377.428    -251.414    -223.744
  H      375.695    -251.309    -223.944

 3  4  5  6  7  8  9  10  11  12  23  26  30  31 0
 6-311+G(2d,p)
 ****
 33  35  36  37  38 0
 6-311+G(2d,p)
 ****
 1  2  13  14  15  16  17  18  19  20  21  22  24  25 0
 3-21G
 ****
 27  28  29  32  34  39  40  41  42  43  44  45  46  47  48  49 0
 3-21G
 ****


