%nproc=1
%NoSave
%Mem=1900MB
#P OB98/GEN NMR

erre ene a

0 1
  C     -227.730    -332.301    -436.503
  O     -229.132    -332.137    -436.566
  H     -227.312    -331.511    -435.870
  H     -227.299    -332.210    -437.502
  H     -227.471    -333.275    -436.070
  P     -229.962    -333.310    -437.281
  C     -229.888    -331.954    -439.498
  O     -229.649    -333.198    -438.853
  C     -228.730    -331.613    -440.434
  O     -227.518    -331.398    -439.672
  C     -228.408    -332.704    -441.450
  O     -229.266    -332.637    -442.585
  C     -226.979    -332.325    -441.821
  O     -226.992    -331.196    -442.720
  C     -226.402    -331.910    -440.457
  N     -222.338    -334.937    -440.218
  C     -222.656    -333.946    -441.125
  N     -221.765    -333.729    -442.122
  N     -223.749    -333.226    -441.076
  C     -224.553    -333.556    -440.031
  C     -224.350    -334.514    -439.066
  C     -223.135    -335.298    -439.134
  O     -222.799    -336.173    -438.344
  N     -225.385    -334.553    -438.167
  C     -226.217    -333.625    -438.600
  N     -225.765    -332.997    -439.731
  O     -231.483    -332.807    -437.170
  O     -229.798    -334.665    -436.684
  H     -227.357    -330.441    -442.219
  H     -232.061    -333.583    -437.036
  H     -221.494    -335.465    -440.315
  H     -227.161    -333.375    -438.129
  H     -225.665    -331.108    -440.543
  H     -226.447    -333.128    -442.325
  H     -220.933    -334.283    -442.251
  H     -228.414    -333.699    -440.990
  H     -221.958    -332.984    -442.777
  H     -228.970    -330.667    -440.941
  H     -229.986    -331.170    -438.738
  H     -230.828    -332.021    -440.063
  P     -230.214    -333.902    -442.873
  C     -229.915    -333.638    -445.438
  O     -229.754    -334.478    -444.299
  O     -231.634    -333.223    -443.187
  O     -230.299    -334.890    -441.756
  H     -232.354    -333.858    -443.017
  H     -229.568    -334.151    -446.311
  H     -229.348    -332.741    -445.302
  H     -230.950    -333.392    -445.556

 6  7  8  9  10  11  12  13  14  15  26  29  33  34 0
 6-311+G(2d,p)
 ****
 36  38  39  40  41 0
 6-311+G(2d,p)
 ****
 1  2  3  4  5  16  17  18  19  20  21  22  23  24  25 0
 3-21G
 ****
 27  28  30  31  32  35  37  42  43  44  45  46  47 0
 3-21G
 ****
 48  49 0
 3-21G
 ****


