%nproc=1
%NoSave
%Mem=1900MB
#P OB98/GEN NMR

erre ene a

0 1
  C     -297.109    -797.499    -273.302
  O     -296.904    -796.635    -274.404
  P     -298.103    -795.721    -274.956
  C     -296.799    -793.873    -276.184
  O     -297.566    -795.057    -276.316
  C     -296.481    -793.292    -277.561
  O     -295.497    -794.101    -278.256
  C     -297.669    -793.251    -278.506
  O     -298.737    -792.384    -278.179
  C     -296.976    -793.019    -279.844
  O     -296.652    -791.637    -280.033
  C     -295.685    -793.860    -279.671
  N     -295.749    -795.119    -280.430
  C     -295.892    -794.977    -281.813
  O     -295.968    -793.885    -282.388
  N     -295.988    -796.147    -282.529
  C     -295.987    -797.397    -281.997
  O     -296.112    -798.406    -282.685
  C     -295.846    -797.480    -280.530
  C     -295.732    -796.349    -279.828
  O     -298.658    -794.746    -273.976
  O     -299.170    -796.794    -275.493
  H     -296.292    -791.545    -280.935
  H     -298.837    -797.377    -276.195
  H     -296.109    -796.061    -283.524
  H     -295.833    -798.469    -280.088
  H     -295.630    -796.384    -278.747
  H     -294.809    -793.288    -280.014
  H     -297.606    -793.320    -280.690
  H     -298.104    -794.262    -278.548
  H     -296.034    -792.298    -277.425
  H     -295.854    -794.116    -275.673
  H     -297.343    -793.147    -275.564
  P     -300.146    -792.904    -277.626
  C     -300.913    -790.737    -276.426
  O     -301.132    -791.637    -277.484
  O     -300.115    -793.876    -276.486
  O     -300.749    -793.645    -278.920
  H     -301.323    -794.384    -278.644
  H     -301.690    -789.967    -276.445
  H     -299.944    -790.248    -276.530
  H     -300.970    -791.250    -275.464
  H     -296.201    -798.021    -273.084
  H     -297.877    -798.205    -273.540
  H     -297.404    -796.925    -272.449

 3  4  5  6  7  8  9  10  11  12  13  23  28  29  30  31  32 0
 6-311+G(2d,p)
 ****
 33  34 0
 6-311+G(2d,p)
 ****
 1  2  14  15  16  17  18  19  20  21  22  24  25  26  27 0
 3-21G
 ****
 35  36  37  38  39  40  41  42  43  44  45 0
 3-21G
 ****


