%nproc=1
%NoSave
%Mem=1900MB
#P OB98/GEN NMR

erre ene a

0 1
  C      -66.678     100.388     -12.826
  O      -65.492      99.716     -12.445
  H      -67.496     100.041     -12.190
  H      -66.925     100.166     -13.867
  H      -66.564     101.467     -12.693
  P      -64.141     100.052     -13.239
  C      -63.308      99.711     -15.660
  O      -64.335      99.448     -14.712
  C      -62.918      98.425     -16.380
  O      -62.236      97.532     -15.479
  C      -64.106      97.648     -16.947
  O      -64.519      98.207     -18.184
  C      -63.488      96.267     -17.089
  O      -62.635      96.233     -18.250
  C      -62.643      96.173     -15.806
  N      -62.997      92.199     -12.678
  C      -62.193      92.387     -13.787
  N      -61.402      91.349     -14.134
  N      -62.182      93.484     -14.500
  C      -63.075      94.406     -14.074
  C      -63.936      94.328     -13.002
  C      -63.899      93.133     -12.186
  O      -64.582      92.932     -11.186
  N      -64.740      95.437     -12.920
  C      -64.341      96.200     -13.920
  N      -63.341      95.612     -14.660
  O      -62.861      99.635     -12.579
  O      -64.210     101.632     -13.475
  H      -63.135      96.653     -18.975
  H      -63.758     102.115     -12.760
  H      -62.972      91.324     -12.181
  H      -64.736      97.181     -14.149
  H      -61.731      95.582     -15.950
  H      -64.227      95.475     -17.205
  H      -61.579      90.408     -13.803
  H      -64.932      97.587     -16.230
  H      -60.843      91.449     -14.972
  H      -62.206      98.687     -17.173
  H      -62.451     100.120     -15.114
  H      -63.646     100.454     -16.390
  P      -66.073      98.276     -18.584
  C      -67.923      96.470     -18.653
  O      -66.530      96.746     -18.735
  O      -66.379      99.137     -19.763
  O      -66.814      98.728     -17.244
  H      -66.876      99.710     -17.139
  H      -68.086      95.419     -18.769
  H      -68.438      96.999     -19.428
  H      -68.294      96.785     -17.700

 6  7  8  9  10  11  12  13  14  15  26  29  33  34 0
 6-311+G(2d,p)
 ****
 36  38  39  40  41 0
 6-311+G(2d,p)
 ****
 1  2  3  4  5  16  17  18  19  20  21  22  23  24  25 0
 3-21G
 ****
 27  28  30  31  32  35  37  42  43  44  45  46  47 0
 3-21G
 ****
 48  49 0
 3-21G
 ****


