%nproc=1
%NoSave
%Mem=1900MB
#P OB98/GEN NMR

erre ene a

0 1
  C       77.197    -369.428    -119.280
  O       78.438    -368.744    -119.348
  P       79.383    -369.028    -120.613
  C       78.894    -366.772    -121.825
  O       78.780    -368.186    -121.840
  C       79.660    -366.281    -123.060
  O       78.931    -366.698    -124.245
  C       79.833    -364.760    -123.147
  O       81.082    -364.519    -123.805
  C       78.689    -364.337    -124.051
  O       78.913    -363.068    -124.663
  C       78.642    -365.512    -125.020
  N       76.133    -365.381    -129.414
  C       77.461    -365.093    -129.143
  N       78.240    -364.787    -130.205
  N       77.979    -365.108    -127.942
  C       77.083    -365.451    -126.982
  C       75.742    -365.715    -127.117
  C       75.190    -365.733    -128.457
  O       74.046    -366.066    -128.749
  N       75.146    -365.931    -125.904
  C       76.140    -365.879    -125.044
  N       77.343    -365.632    -125.651
  O       79.039    -370.543    -120.986
  O       80.849    -368.814    -120.388
  H       79.724    -363.141    -125.208
  H       79.661    -371.163    -120.564
  H       75.799    -365.372    -130.363
  H       76.056    -366.011    -123.977
  H       79.395    -365.433    -125.817
  H       77.763    -364.269    -123.467
  H       77.912    -364.788    -131.161
  H       79.813    -364.262    -122.174
  H       79.219    -364.606    -130.039
  H       80.634    -366.779    -123.084
  H       79.455    -366.470    -120.931
  H       77.900    -366.322    -121.781
  P       81.708    -363.044    -123.715
  C       83.727    -364.023    -122.418
  O       82.723    -363.029    -122.477
  O       80.470    -362.168    -123.186
  O       82.229    -362.504    -125.006
  H       80.532    -361.264    -123.548
  H       84.547    -363.663    -121.788
  H       84.119    -364.260    -123.408
  H       83.312    -364.932    -121.967
  H       76.680    -369.141    -118.389
  H       77.372    -370.484    -119.266
  H       76.603    -369.176    -120.134

 3  4  5  6  7  8  9  10  11  12  23  26  30  31 0
 6-311+G(2d,p)
 ****
 33  35  36  37  38 0
 6-311+G(2d,p)
 ****
 1  2  13  14  15  16  17  18  19  20  21  22  24  25 0
 3-21G
 ****
 27  28  29  32  34  39  40  41  42  43  44  45  46  47  48  49 0
 3-21G
 ****


