%nproc=1
%NoSave
%Mem=1900MB
#P OB98/GEN NMR

erre ene a

0 1
  C      -50.547     221.052      59.088
  O      -49.966     221.995      59.968
  P      -50.783     222.575      61.216
  C      -51.125     224.758      59.919
  O      -50.722     224.175      61.150
  C      -51.343     226.267      60.060
  O      -51.689     226.825      58.766
  C      -52.452     226.650      61.051
  O      -52.016     227.828      61.739
  C      -53.627     226.965      60.144
  O      -54.587     227.803      60.773
  C      -52.903     227.584      58.944
  N      -53.716     227.576      57.739
  C      -53.976     228.811      57.140
  O      -53.633     229.854      57.701
  N      -54.627     228.831      55.931
  C      -55.140     227.734      55.464
  N      -55.717     227.784      54.233
  C      -55.102     226.453      56.198
  C      -54.347     226.433      57.294
  O      -50.410     221.994      62.540
  O      -52.315     222.257      60.867
  H      -52.721     221.777      61.614
  H      -54.185     228.683      60.932
  H      -55.651     225.597      55.831
  H      -54.231     225.534      57.888
  H      -52.609     228.620      59.163
  H      -54.127     226.033      59.853
  H      -52.660     225.861      61.780
  H      -50.392     226.718      60.366
  H      -55.690     228.668      53.742
  H      -52.067     224.292      59.613
  H      -55.852     226.950      53.663
  H      -50.379     224.548      59.145
  P      -51.751     227.734      63.322
  C      -54.141     226.752      63.593
  O      -53.176     227.676      64.056
  O      -51.264     229.228      63.656
  O      -50.718     226.750      63.769
  H      -50.710     229.208      64.459
  H      -55.061     226.899      64.161
  H      -53.793     225.727      63.751
  H      -54.352     226.912      62.532
  H      -49.842     220.793      58.326
  H      -51.420     221.476      58.637
  H      -50.819     220.174      59.635

 3  4  5  6  7  8  9  10  11  12  13  24  27  28  29  30  32 0
 6-311+G(2d,p)
 ****
 34  35 0
 6-311+G(2d,p)
 ****
 1  2  14  15  16  17  18  19  20  21  22  23  25  26 0
 3-21G
 ****
 31  33  36  37  38  39  40  41  42  43  44  45  46 0
 3-21G
 ****


