%nproc=1
%NoSave
%Mem=1900MB
#P OB98/GEN NMR

erre ene a

0 1
  C     -351.604     428.399     793.780
  O     -350.783     427.265     793.632
  H     -352.223     428.508     792.886
  H     -350.988     429.298     793.883
  H     -352.259     428.296     794.653
  P     -349.896     426.822     794.901
  C     -349.477     424.314     794.360
  O     -348.941     425.632     794.401
  C     -348.732     423.455     793.336
  O     -349.214     423.792     792.010
  C     -347.219     423.676     793.351
  O     -346.569     422.404     793.125
  C     -346.962     424.579     792.156
  O     -345.636     424.460     791.640
  C     -348.076     424.138     791.197
  N     -348.389     425.193     790.230
  C     -348.008     424.962     788.901
  O     -347.423     423.919     788.593
  N     -348.242     425.946     787.969
  C     -348.735     427.090     788.344
  N     -348.918     428.029     787.374
  C     -349.091     427.389     789.749
  C     -348.909     426.405     790.624
  O     -350.949     426.079     795.847
  O     -349.181     427.933     795.595
  H     -345.477     423.522     791.416
  H     -350.719     426.200     796.790
  H     -349.481     428.365     790.018
  H     -349.128     426.539     791.677
  H     -347.768     423.237     790.647
  H     -347.112     425.629     792.462
  H     -346.849     424.103     794.291
  H     -348.984     422.403     793.515
  H     -348.644     427.782     786.423
  H     -350.541     424.374     794.072
  H     -349.252     428.963     787.562
  H     -349.417     423.863     795.359
  P     -345.315     422.058     794.066
  C     -346.298     419.957     795.254
  O     -345.330     420.474     794.346
  O     -345.729     422.697     795.480
  O     -344.015     422.608     793.572
  H     -345.189     423.484     795.663
  H     -346.181     418.896     795.334
  H     -347.280     420.182     794.894
  H     -346.160     420.405     796.216

 6  7  8  9  10  11  12  13  14  15  16  26  30  31  32  33  35 0
 6-311+G(2d,p)
 ****
 37  38 0
 6-311+G(2d,p)
 ****
 1  2  3  4  5  17  18  19  20  21  22  23  24  25 0
 3-21G
 ****
 27  28  29  34  36  39  40  41  42  43  44  45  46 0
 3-21G
 ****


