%nproc=1
%NoSave
%Mem=1900MB
#P OB98/GEN NMR

erre ene a

0 1
  C     -103.056     210.693     187.763
  O     -102.990     210.490     186.350
  P     -103.224     209.016     185.765
  C     -101.939     206.784     185.697
  O     -102.070     208.049     186.327
  C     -101.007     205.868     186.503
  O      -99.636     206.357     186.450
  C     -101.400     205.785     187.984
  O     -101.100     204.484     188.513
  C     -100.460     206.779     188.637
  O     -100.316     206.530     190.033
  C      -99.195     206.560     187.808
  N      -97.079     210.092     190.853
  C      -97.912     209.059     191.118
  N      -98.416     208.148     190.260
  C      -97.963     208.367     189.013
  C      -97.105     209.372     188.595
  C      -96.659     210.269     189.580
  N      -95.834     211.338     189.306
  N      -96.869     209.284     187.238
  C      -97.613     208.274     186.835
  N      -98.266     207.670     187.875
  O     -103.452     208.934     184.293
  O     -104.515     208.515     186.575
  H      -99.785     205.717     190.132
  H     -105.111     208.042     185.961
  H      -98.219     208.959     192.156
  H      -97.726     207.950     185.811
  H      -98.657     205.657     188.119
  H     -100.846     207.797     188.509
  H     -102.450     206.015     188.189
  H     -101.009     204.870     186.048
  H     -101.548     206.914     184.685
  H      -95.661     211.995     190.053
  H      -95.635     211.568     188.342
  H     -102.933     206.338     185.580
  P     -102.249     203.810     189.420
  C     -102.832     203.933     191.966
  O     -101.952     204.284     190.919
  O     -102.388     202.338     189.209
  O     -103.541     204.646     188.987
  H     -103.431     205.612     189.010
  H     -102.388     204.240     192.916
  H     -102.996     202.853     191.989
  H     -103.787     204.450     191.841
  H     -102.878     211.725     187.984
  H     -102.313     210.092     188.245
  H     -104.026     210.414     188.118

 3  4  5  6  7  8  9  10  11  12  22  25  29  30  31  32 0
 6-311+G(2d,p)
 ****
 33  36  37 0
 6-311+G(2d,p)
 ****
 1  2  13  14  15  16  17  18  19  20  21  23  24  26 0
 3-21G
 ****
 27  28  34  35  38  39  40  41  42  43  44  45  46  47  48 0
 3-21G
 ****


