%nproc=1
%NoSave
%Mem=1900MB
#P OB98/GEN NMR

erre ene a

0 1
  C      370.905    -553.227    -190.043
  O      370.018    -554.306    -189.814
  H      371.375    -552.958    -189.092
  H      370.354    -552.362    -190.416
  H      371.685    -553.513    -190.754
  P      369.264    -554.967    -191.064
  C      369.016    -557.436    -191.748
  O      368.984    -556.503    -190.679
  C      368.992    -558.865    -191.213
  O      370.340    -559.237    -190.819
  C      368.074    -559.055    -190.006
  O      367.448    -560.341    -190.113
  C      369.035    -559.056    -188.827
  O      368.532    -559.786    -187.715
  C      370.288    -559.676    -189.446
  N      374.936    -561.148    -188.138
  C      374.006    -561.772    -188.943
  N      374.339    -562.968    -189.472
  N      372.827    -561.255    -189.224
  C      372.630    -560.037    -188.644
  C      373.481    -559.331    -187.825
  C      374.761    -559.919    -187.518
  O      375.629    -559.431    -186.805
  N      372.896    -558.151    -187.417
  C      371.706    -558.154    -187.985
  N      371.493    -559.283    -188.735
  O      369.930    -554.777    -192.394
  O      367.806    -554.308    -191.037
  H      367.611    -559.481    -187.565
  H      367.740    -553.584    -191.689
  H      375.824    -561.604    -187.960
  H      370.964    -557.368    -187.884
  H      370.265    -560.778    -189.436
  H      369.221    -558.025    -188.505
  H      375.233    -563.416    -189.313
  H      367.311    -558.274    -189.922
  H      373.678    -563.425    -190.087
  H      368.714    -559.538    -192.033
  H      369.936    -557.271    -192.323
  H      368.154    -557.266    -192.405
  P      365.844    -560.409    -190.163
  C      364.291    -562.324    -190.921
  O      365.411    -561.955    -190.119
  O      365.200    -559.599    -191.233
  O      365.419    -559.896    -188.707
  H      364.538    -559.452    -188.775
  H      364.101    -563.371    -190.808
  H      364.501    -562.108    -191.948
  H      363.431    -561.770    -190.609

 6  7  8  9  10  11  12  13  14  15  26  29  33  34 0
 6-311+G(2d,p)
 ****
 36  38  39  40  41 0
 6-311+G(2d,p)
 ****
 1  2  3  4  5  16  17  18  19  20  21  22  23  24  25 0
 3-21G
 ****
 27  28  30  31  32  35  37  42  43  44  45  46  47 0
 3-21G
 ****
 48  49 0
 3-21G
 ****


