%nproc=1
%NoSave
%Mem=1900MB
#P OB98/GEN NMR

erre ene a

0 1
  C       22.817    -233.200     430.960
  O       21.971    -234.268     431.383
  P       20.582    -234.431     430.592
  C       19.192    -236.621     430.512
  O       19.729    -235.582     431.316
  C       18.702    -237.782     431.382
  O       19.791    -238.486     432.018
  C       17.770    -237.349     432.504
  O       16.462    -237.136     431.995
  C       17.857    -238.533     433.464
  O       16.962    -239.589     433.069
  C       19.323    -238.981     433.300
  N       21.008    -239.877     438.002
  C       19.965    -240.468     437.303
  N       19.294    -241.451     437.943
  N       19.619    -240.122     436.095
  C       20.378    -239.123     435.578
  C       21.448    -238.486     436.154
  C       21.828    -238.872     437.503
  O       22.754    -238.400     438.150
  N       22.007    -237.570     435.297
  C       21.196    -237.568     434.255
  N       20.230    -238.544     434.347
  O       21.022    -235.086     429.202
  O       19.863    -233.140     430.385
  H       16.893    -240.232     433.797
  H       20.917    -234.438     428.482
  H       21.225    -240.174     438.936
  H       21.283    -236.915     433.406
  H       19.405    -240.075     433.267
  H       17.584    -238.249     434.478
  H       19.513    -241.770     438.881
  H       18.159    -236.439     432.988
  H       18.533    -241.898     437.453
  H       18.185    -238.495     430.719
  H       19.945    -236.976     429.805
  H       18.369    -236.210     429.915
  P       15.850    -235.663     432.081
  C       14.933    -233.965     430.345
  O       15.238    -235.309     430.641
  O       17.159    -234.734     432.180
  O       14.939    -235.434     433.241
  H       17.021    -234.049     432.866
  H       15.042    -233.808     429.266
  H       15.604    -233.267     430.870
  H       13.894    -233.755     430.628
  H       23.706    -233.192     431.556
  H       22.301    -232.269     431.075
  H       23.078    -233.338     429.932

 3  4  5  6  7  8  9  10  11  12  23  26  30  31 0
 6-311+G(2d,p)
 ****
 33  35  36  37  38 0
 6-311+G(2d,p)
 ****
 1  2  13  14  15  16  17  18  19  20  21  22  24  25 0
 3-21G
 ****
 27  28  29  32  34  39  40  41  42  43  44  45  46  47  48  49 0
 3-21G
 ****


