%nproc=1
%NoSave
%Mem=1900MB
#P OB98/GEN NMR

erre ene a

0 1
  C     -227.452     144.644      90.092
  O     -226.904     144.752      88.789
  P     -227.536     145.752      87.714
  C     -228.861     143.862      86.464
  O     -228.874     145.098      87.143
  C     -230.298     143.501      86.062
  O     -231.096     143.257      87.238
  C     -230.958     144.627      85.269
  O     -230.818     144.405      83.874
  C     -232.394     144.571      85.750
  O     -233.119     143.540      85.054
  C     -232.212     144.188      87.237
  N     -231.909     145.264      88.201
  C     -232.868     146.235      88.473
  O     -233.991     146.243      87.977
  N     -232.478     147.230      89.334
  C     -231.269     147.314      89.962
  O     -230.849     148.317      90.526
  C     -230.415     146.128      89.846
  C     -230.755     145.186      88.969
  O     -226.519     145.647      86.483
  O     -227.715     147.161      88.174
  H     -234.043     143.583      85.360
  H     -225.893     146.395      86.490
  H     -233.119     148.013      89.426
  H     -229.510     146.088      90.439
  H     -230.117     144.316      88.838
  H     -233.091     143.655      87.615
  H     -232.917     145.503      85.539
  H     -230.529     145.596      85.556
  H     -230.279     142.578      85.470
  H     -228.438     143.084      87.108
  H     -228.225     143.926      85.575
  P     -230.601     145.650      82.894
  C     -233.139     145.768      82.562
  O     -231.976     146.472      82.947
  O     -230.106     145.314      81.527
  O     -229.561     146.569      83.694
  H     -228.652     146.409      83.364
  H     -234.014     146.373      82.810
  H     -233.202     144.813      83.091
  H     -233.124     145.594      81.482
  H     -226.892     143.928      90.656
  H     -228.472     144.327      90.025
  H     -227.406     145.596      90.578

 3  4  5  6  7  8  9  10  11  12  13  23  28  29  30  31  32 0
 6-311+G(2d,p)
 ****
 33  34 0
 6-311+G(2d,p)
 ****
 1  2  14  15  16  17  18  19  20  21  22  24  25  26  27 0
 3-21G
 ****
 35  36  37  38  39  40  41  42  43  44  45 0
 3-21G
 ****


