%nproc=1
%NoSave
%Mem=1900MB
#P OB98/GEN NMR

erre ene a

0 1
  C       80.734     872.317     195.870
  O       79.572     872.639     195.128
  P       78.921     874.096     195.212
  C       77.764     873.436     197.421
  O       78.633     874.367     196.773
  C       76.681     874.179     198.187
  O       77.226     875.269     198.966
  C       75.631     874.839     197.296
  O       74.795     873.982     196.540
  C       74.957     875.772     198.291
  O       73.986     875.093     199.079
  C       76.151     876.226     199.152
  N       76.580     877.599     198.850
  C       76.709     878.452     199.943
  O       76.486     878.103     201.101
  N       77.070     879.735     199.654
  C       77.263     880.250     198.405
  O       77.524     881.429     198.210
  C       77.089     879.307     197.282
  C       76.755     878.046     197.553
  O       77.759     874.332     194.311
  O       80.176     875.077     194.937
  H       73.424     874.565     198.474
  H       80.903     874.984     195.574
  H       77.161     880.381     200.421
  H       77.245     879.690     196.279
  H       76.621     877.333     196.750
  H       75.892     876.186     200.221
  H       74.430     876.591     197.773
  H       76.153     875.472     196.567
  H       76.217     873.473     198.902
  H       78.351     872.837     198.126
  H       77.338     872.758     196.683
  P       74.071     874.451     195.180
  C       71.554     874.535     195.790
  O       72.749     875.263     195.566
  O       73.970     873.423     194.107
  O       75.046     875.633     194.690
  H       75.041     875.667     193.712
  H       70.754     875.245     195.987
  H       71.667     873.872     196.649
  H       71.282     873.953     194.902
  H       81.010     871.301     195.678
  H       80.536     872.442     196.914
  H       81.534     872.965     195.578

 3  4  5  6  7  8  9  10  11  12  13  23  28  29  30  31  32 0
 6-311+G(2d,p)
 ****
 33  34 0
 6-311+G(2d,p)
 ****
 1  2  14  15  16  17  18  19  20  21  22  24  25  26  27 0
 3-21G
 ****
 35  36  37  38  39  40  41  42  43  44  45 0
 3-21G
 ****


