%nproc=1
%NoSave
%Mem=1900MB
#P OB98/GEN NMR

erre ene a

0 1
  C       23.291    -156.127     -11.765
  O       24.589    -155.822     -11.283
  P       25.573    -157.039     -10.934
  C       24.820    -157.126      -8.450
  O       24.958    -157.829      -9.679
  C       25.138    -158.036      -7.265
  O       24.139    -159.089      -7.176
  C       26.507    -158.717      -7.360
  O       27.057    -158.866      -6.042
  C       26.179    -160.104      -7.874
  O       27.198    -161.045      -7.540
  C       24.834    -160.353      -7.185
  N       22.732    -164.925      -6.696
  C       23.231    -164.080      -5.723
  N       23.246    -164.558      -4.460
  N       23.667    -162.870      -5.966
  C       23.597    -162.528      -7.279
  C       23.111    -163.272      -8.330
  C       22.641    -164.613      -8.047
  O       22.214    -165.423      -8.866
  N       23.169    -162.575      -9.508
  C       23.731    -161.428      -9.184
  N       24.040    -161.365      -7.849
  O       26.854    -156.299     -10.325
  O       25.952    -157.889     -12.103
  H       27.044    -161.837      -8.090
  H       27.581    -156.305     -10.972
  H       22.418    -165.850      -6.460
  H       23.957    -160.627      -9.873
  H       24.969    -160.662      -6.141
  H       26.075    -160.087      -8.964
  H       22.984    -165.505      -4.216
  H       27.229    -158.197      -7.999
  H       23.646    -163.975      -3.737
  H       25.064    -157.448      -6.340
  H       23.793    -156.765      -8.359
  H       25.487    -156.258      -8.447
  P       28.642    -158.636      -5.911
  C       29.144    -161.170      -5.566
  O       29.327    -160.013      -6.361
  O       28.881    -158.590      -4.330
  O       29.140    -157.406      -6.598
  H       29.681    -158.077      -4.119
  H       28.602    -161.916      -6.154
  H       28.583    -160.957      -4.651
  H       30.125    -161.570      -5.292
  H       22.757    -155.219     -11.952
  H       22.766    -156.706     -11.034
  H       23.370    -156.687     -12.673

 3  4  5  6  7  8  9  10  11  12  23  26  30  31 0
 6-311+G(2d,p)
 ****
 33  35  36  37  38 0
 6-311+G(2d,p)
 ****
 1  2  13  14  15  16  17  18  19  20  21  22  24  25 0
 3-21G
 ****
 27  28  29  32  34  39  40  41  42  43  44  45  46  47  48  49 0
 3-21G
 ****


