%nproc=1
%NoSave
%Mem=1900MB
#P OB98/GEN NMR

erre ene a

0 1
  C     -179.848     276.443     -94.213
  O     -180.578     275.273     -93.875
  P     -179.839     273.864     -93.621
  C     -178.384     272.323     -95.108
  O     -179.306     273.401     -95.062
  C     -177.487     272.444     -96.349
  O     -176.942     273.788     -96.394
  C     -176.302     271.461     -96.365
  O     -176.086     271.095     -97.732
  C     -175.151     272.306     -95.848
  O     -173.889     271.798     -96.229
  C     -175.499     273.670     -96.456
  N     -174.860     274.777     -95.751
  C     -173.605     275.183     -96.200
  O     -173.041     274.615     -97.140
  N     -172.991     276.245     -95.569
  C     -173.542     276.788     -94.530
  N     -172.926     277.871     -93.977
  C     -174.823     276.309     -93.955
  C     -175.426     275.332     -94.626
  O     -180.662     272.847     -92.909
  O     -178.484     274.252     -92.873
  H     -173.914     271.589     -97.181
  H     -178.597     274.344     -91.895
  H     -175.230     276.780     -93.074
  H     -176.379     274.939     -94.293
  H     -175.226     273.696     -97.515
  H     -175.189     272.345     -94.755
  H     -176.489     270.563     -95.773
  H     -178.109     272.312     -97.237
  H     -172.152     278.269     -94.498
  H     -178.952     271.391     -95.173
  H     -173.439     278.522     -93.397
  H     -177.789     272.307     -94.192
  P     -175.324     269.708     -98.036
  C     -172.960     268.863     -97.367
  O     -173.755     269.943     -97.815
  O     -175.429     269.620     -99.637
  O     -175.917     268.478     -97.426
  H     -175.372     268.686     -99.908
  H     -171.921     269.206     -97.279
  H     -172.993     268.039     -98.080
  H     -173.300     268.523     -96.379
  H     -180.525     277.262     -94.337
  H     -179.315     276.279     -95.126
  H     -179.154     276.669     -93.430

 3  4  5  6  7  8  9  10  11  12  13  23  27  28  29  30  32 0
 6-311+G(2d,p)
 ****
 34  35 0
 6-311+G(2d,p)
 ****
 1  2  14  15  16  17  18  19  20  21  22  24  25  26 0
 3-21G
 ****
 31  33  36  37  38  39  40  41  42  43  44  45  46 0
 3-21G
 ****


