%nproc=1
%NoSave
%Mem=1900MB
#P OB98/GEN NMR

erre ene a

0 1
  C      -53.135     182.192    -102.266
  O      -51.788     182.446    -102.612
  P      -51.258     183.953    -102.707
  C      -50.833     184.881    -105.066
  O      -51.811     184.581    -104.077
  C      -50.273     183.593    -105.667
  O      -51.346     182.704    -106.041
  C      -49.456     183.803    -106.936
  O      -48.169     184.304    -106.631
  C      -49.469     182.400    -107.533
  O      -48.470     181.577    -106.910
  C      -50.878     181.912    -107.153
  N      -52.726     179.493    -111.249
  C      -51.681     179.221    -110.437
  N      -51.226     179.938    -109.386
  C      -51.959     181.050    -109.225
  C      -53.028     181.480    -109.995
  C      -53.430     180.631    -111.040
  N      -54.531     180.866    -111.835
  N      -53.500     182.698    -109.533
  C      -52.722     182.996    -108.512
  N      -51.822     182.002    -108.252
  O      -49.796     184.132    -102.475
  O      -52.107     184.725    -101.589
  H      -47.618     181.787    -107.332
  H      -51.500     185.102    -100.924
  H      -51.145     178.301    -110.653
  H      -52.785     183.904    -107.925
  H      -50.869     180.868    -106.817
  H      -49.273     182.397    -108.606
  H      -49.987     184.486    -107.611
  H      -49.671     183.091    -104.900
  H      -50.027     185.450    -104.591
  H      -54.812     180.123    -112.455
  H      -55.230     181.530    -111.506
  H      -51.287     185.497    -105.847
  P      -47.386     185.194    -107.706
  C      -45.710     184.216    -109.383
  O      -47.059     184.241    -108.952
  O      -46.228     185.975    -107.178
  O      -48.520     186.164    -108.289
  H      -48.121     187.019    -108.535
  H      -45.500     185.113    -109.975
  H      -45.559     183.333    -110.012
  H      -45.028     184.167    -108.532
  H      -53.307     181.136    -102.252
  H      -53.781     182.649    -102.987
  H      -53.337     182.599    -101.297

 3  4  5  6  7  8  9  10  11  12  22  25  29  30  31  32 0
 6-311+G(2d,p)
 ****
 33  36  37 0
 6-311+G(2d,p)
 ****
 1  2  13  14  15  16  17  18  19  20  21  23  24  26 0
 3-21G
 ****
 27  28  34  35  38  39  40  41  42  43  44  45  46  47  48 0
 3-21G
 ****


