%nproc=1
%NoSave
%Mem=1900MB
#P OB98/GEN NMR

erre ene a

0 1
  C      -21.914     -73.996     -13.268
  O      -21.617     -74.394     -11.945
  H      -21.690     -72.935     -13.406
  H      -21.298     -74.581     -13.957
  H      -22.969     -74.186     -13.489
  P      -22.346     -73.574     -10.775
  C      -20.741     -71.700      -9.982
  O      -21.792     -72.069     -10.862
  C      -19.460     -72.435     -10.356
  O      -19.155     -72.229     -11.750
  C      -18.218     -71.977      -9.600
  O      -18.159     -72.527      -8.292
  C      -17.122     -72.538     -10.495
  O      -16.937     -73.938     -10.213
  C      -17.717     -72.360     -11.900
  N      -14.784     -70.707     -15.777
  C      -15.084     -71.951     -15.340
  N      -15.859     -72.315     -14.299
  C      -16.369     -71.235     -13.684
  C      -16.155     -69.908     -14.016
  C      -15.314     -69.656     -15.113
  N      -15.002     -68.383     -15.540
  N      -16.853     -69.075     -13.170
  C      -17.481     -69.883     -12.339
  N      -17.214     -71.199     -12.606
  O      -21.664     -74.141      -9.440
  O      -23.831     -73.709     -10.729
  H      -16.907     -74.026      -9.242
  H      -22.333     -74.171      -8.731
  H      -14.641     -72.767     -15.907
  H      -18.137     -69.561     -11.540
  H      -17.542     -73.242     -12.525
  H      -16.158     -72.046     -10.353
  H      -18.146     -70.884      -9.581
  H      -19.632     -73.509     -10.206
  H      -21.018     -71.960      -8.955
  H      -14.564     -68.269     -16.438
  H      -15.412     -67.600     -15.039
  H      -20.592     -70.617     -10.046
  P      -17.203     -71.799      -7.226
  C      -15.076     -73.114      -6.535
  O      -15.724     -72.337      -7.536
  O      -17.578     -72.525      -5.849
  O      -17.364     -70.321      -7.136
  H      -17.379     -71.934      -5.098
  H      -14.104     -73.401      -6.879
  H      -15.656     -73.990      -6.333
  H      -14.981     -72.535      -5.640

 6  7  8  9  10  11  12  13  14  15  25  28  32  33  34  35 0
 6-311+G(2d,p)
 ****
 36  39  40 0
 6-311+G(2d,p)
 ****
 1  2  3  4  5  16  17  18  19  20  21  22  23  24 0
 3-21G
 ****
 26  27  29  30  31  37  38  41  42  43  44  45  46  47  48 0
 3-21G
 ****


