%nproc=1
%NoSave
%Mem=1900MB
#P OB98/GEN NMR

erre ene a

0 1
  C     -357.581     320.370     968.463
  O     -356.787     321.496     968.780
  H     -357.960     320.486     967.443
  H     -358.432     320.309     969.148
  H     -356.990     319.449     968.520
  P     -355.937     321.436     970.139
  C     -353.368     321.517     969.742
  O     -354.578     322.248     969.864
  C     -352.277     322.414     969.162
  O     -352.726     322.941     967.890
  C     -351.907     323.621     970.052
  O     -350.504     323.859     969.947
  C     -352.671     324.764     969.410
  O     -352.130     326.055     969.696
  C     -352.566     324.377     967.931
  N     -353.563     325.056     967.107
  C     -353.207     326.255     966.508
  O     -352.077     326.743     966.556
  N     -354.206     326.902     965.823
  C     -355.497     326.473     965.702
  O     -356.360     327.112     965.098
  C     -355.823     325.208     966.359
  C     -354.856     324.564     967.022
  O     -355.445     319.918     970.200
  O     -356.664     321.849     971.374
  H     -356.102     319.366     970.670
  H     -352.316     326.231     970.652
  H     -353.957     327.774     965.386
  H     -356.850     324.857     966.292
  H     -355.075     323.624     967.548
  H     -351.562     324.604     967.547
  H     -353.715     324.760     969.740
  H     -352.175     323.501     971.112
  H     -351.385     321.811     968.961
  H     -353.518     320.674     969.062
  H     -353.075     321.135     970.726
  P     -349.528     322.996     970.875
  C     -347.442     323.626     969.423
  O     -348.072     323.635     970.697
  O     -349.463     321.621     970.053
  O     -350.017     322.862     972.279
  H     -349.495     321.754     969.078
  H     -346.482     324.093     969.497
  H     -348.047     324.163     968.722
  H     -347.323     322.616     969.091

 6  7  8  9  10  11  12  13  14  15  16  27  31  32  33  34  35 0
 6-311+G(2d,p)
 ****
 36  37 0
 6-311+G(2d,p)
 ****
 1  2  3  4  5  17  18  19  20  21  22  23  24  25 0
 3-21G
 ****
 26  28  29  30  38  39  40  41  42  43  44  45 0
 3-21G
 ****


