%nproc=1
%NoSave
%Mem=1900MB
#P OB98/GEN NMR

erre ene a

0 1
  C      105.625    -873.283     640.102
  O      106.569    -873.253     641.174
  P      107.671    -872.074     641.106
  C      109.388    -873.812     640.252
  O      109.117    -872.759     641.160
  C      110.844    -873.771     639.763
  O      111.239    -872.396     639.454
  C      111.852    -874.310     640.785
  O      112.897    -874.964     640.055
  C      112.373    -873.032     641.432
  O      113.576    -873.210     642.162
  C      112.456    -872.133     640.196
  N      115.588    -868.107     640.097
  C      115.757    -869.394     639.724
  N      114.872    -870.414     639.792
  C      113.705    -869.990     640.289
  C      113.379    -868.705     640.712
  C      114.384    -867.730     640.596
  N      114.234    -866.426     640.998
  N      112.075    -868.663     641.194
  C      111.658    -869.919     641.119
  N      112.575    -870.731     640.509
  O      107.527    -871.346     642.525
  O      107.459    -871.139     639.961
  H      113.886    -872.346     642.494
  H      106.993    -870.533     642.438
  H      116.742    -869.652     639.330
  H      110.711    -870.286     641.501
  H      113.301    -872.401     639.555
  H      111.618    -872.651     642.136
  H      111.422    -875.014     641.499
  H      110.914    -874.352     638.827
  H      108.724    -873.749     639.387
  H      115.012    -865.800     640.873
  H      113.349    -866.106     641.384
  H      109.166    -874.776     640.732
  P      112.754    -876.525     639.734
  C      115.050    -877.241     640.637
  O      114.264    -877.021     639.472
  O      112.201    -876.469     638.214
  O      111.910    -877.328     640.664
  H      112.733    -875.874     637.673
  H      116.015    -877.650     640.341
  H      114.555    -877.951     641.305
  H      115.214    -876.285     641.158
  H      104.947    -874.098     640.247
  H      106.143    -873.410     639.174
  H      105.079    -872.363     640.082

 3  4  5  6  7  8  9  10  11  12  22  25  29  30  31  32 0
 6-311+G(2d,p)
 ****
 33  36  37 0
 6-311+G(2d,p)
 ****
 1  2  13  14  15  16  17  18  19  20  21  23  24  26 0
 3-21G
 ****
 27  28  34  35  38  39  40  41  42  43  44  45  46  47  48 0
 3-21G
 ****


