%nproc=1
%NoSave
%Mem=1900MB
#P OB98/GEN NMR

erre ene a

0 1
  C       89.370     560.747    -898.270
  O       88.773     561.963    -897.800
  P       87.627     562.636    -898.680
  C       85.556     562.652    -897.090
  O       86.607     563.401    -897.690
  C       85.170     563.290    -895.740
  O       86.213     563.124    -894.750
  C       84.889     564.788    -895.820
  O       83.565     565.053    -896.270
  C       85.055     565.188    -894.360
  O       83.828     564.877    -893.650
  C       86.200     564.300    -893.900
  N       89.322     567.474    -891.490
  C       88.103     566.992    -891.130
  N       87.614     567.416    -889.940
  N       87.373     566.166    -891.860
  C       87.974     565.819    -893.010
  C       89.211     566.214    -893.490
  C       89.986     567.142    -892.680
  O       91.085     567.605    -892.960
  N       89.496     565.648    -894.710
  C       88.439     564.886    -894.960
  N       87.486     564.974    -893.950
  O       86.764     561.364    -899.150
  O       88.107     563.421    -899.860
  H       83.917     565.243    -892.750
  H       86.314     561.549    -900.000
  H       89.835     568.096    -890.900
  H       88.324     564.269    -895.830
  H       86.063     563.955    -892.860
  H       85.202     566.269    -894.240
  H       88.127     568.014    -889.310
  H       85.648     565.299    -896.430
  H       86.715     567.058    -889.630
  H       84.258     562.775    -895.380
  H       85.854     561.622    -896.930
  H       84.697     562.629    -897.770
  P       83.243     566.542    -896.810
  C       82.504     565.659    -899.130
  O       82.147     566.360    -897.960
  O       84.575     566.927    -897.600
  O       82.910     567.528    -895.740
  H       84.732     567.896    -897.540
  H       81.597     565.498    -899.730
  H       82.943     564.696    -898.900
  H       83.203     566.253    -899.730
  H       90.116     560.424    -897.574
  H       89.823     560.918    -899.224
  H       88.617     559.992    -898.362

 3  4  5  6  7  8  9  10  11  12  23  26  30  31 0
 6-311+G(2d,p)
 ****
 33  35  36  37  38 0
 6-311+G(2d,p)
 ****
 1  2  13  14  15  16  17  18  19  20  21  22  24  25 0
 3-21G
 ****
 27  28  29  32  34  39  40  41  42  43  44  45  46  47  48  49 0
 3-21G
 ****


