%nproc=1
%NoSave
%Mem=1900MB
#P OB98/GEN NMR

erre ene a

0 1
  C      401.093    -300.447     318.643
  O      400.490    -300.711     319.896
  H      402.046    -299.945     318.815
  H      400.448    -299.793     318.048
  H      401.273    -301.382     318.103
  P      399.074    -301.467     319.862
  C      400.140    -303.710     320.655
  O      399.401    -303.022     319.655
  C      400.261    -305.199     320.303
  O      400.924    -305.311     319.005
  C      401.110    -306.010     321.303
  O      400.625    -307.364     321.293
  C      402.487    -305.954     320.663
  O      403.352    -306.903     321.235
  C      402.087    -306.146     319.197
  N      406.703    -307.372     317.345
  C      405.895    -307.996     318.243
  N      404.675    -307.613     318.675
  C      404.291    -306.474     318.075
  C      404.991    -305.731     317.136
  C      406.259    -306.233     316.773
  N      407.087    -305.598     315.867
  N      404.270    -304.622     316.740
  C      403.147    -304.688     317.434
  N      403.116    -305.782     318.258
  O      398.453    -301.017     318.455
  O      398.155    -301.162     321.000
  H      404.162    -307.016     320.682
  H      397.861    -300.253     318.582
  H      406.288    -308.913     318.661
  H      402.333    -303.971     317.383
  H      401.800    -307.191     318.986
  H      402.945    -304.973     320.812
  H      401.066    -305.619     322.321
  H      399.256    -305.622     320.186
  H      399.616    -303.601     321.611
  H      401.142    -303.273     320.742
  H      407.986    -306.005     315.673
  H      406.784    -304.733     315.444
  P      399.635    -307.850     322.465
  C      397.710    -308.517     320.821
  O      398.121    -307.746     321.946
  O      399.717    -306.617     323.498
  O      400.013    -309.136     323.139
  H      399.539    -306.944     324.404
  H      396.678    -308.326     320.615
  H      397.845    -309.557     321.033
  H      398.299    -308.247     319.969

 6  7  8  9  10  11  12  13  14  15  25  28  32  33  34  35 0
 6-311+G(2d,p)
 ****
 36  37  40 0
 6-311+G(2d,p)
 ****
 1  2  3  4  5  16  17  18  19  20  21  22  23  24 0
 3-21G
 ****
 26  27  29  30  31  38  39 41  42  43  44  45  46  47  48 0
 3-21G
 ****


