%nproc=1
%NoSave
%Mem=1900MB
#P OB98/GEN NMR

erre ene a

0 1
  C      486.224      94.517    -896.460
  O      486.965      95.106    -895.370
  P      487.998      96.278    -895.680
  C      487.171      98.239    -894.150
  O      487.292      97.730    -895.470
  C      486.503      99.626    -894.170
  O      487.429     100.627    -894.720
  C      485.193      99.712    -894.990
  O      484.379     100.690    -894.340
  C      485.710     100.275    -896.320
  O      484.660     100.859    -897.090
  C      486.759     101.262    -895.840
  N      487.739     101.672    -896.870
  C      488.568     102.718    -896.570
  O      488.511     103.403    -895.540
  N      489.474     103.072    -897.530
  C      489.596     102.487    -898.780
  O      490.403     102.839    -899.600
  C      488.663     101.365    -899.040
  C      487.778     101.049    -898.090
  O      488.115      96.215    -897.290
  O      489.345      96.143    -895.050
  H      483.925     100.211    -897.080
  H      489.054      96.268    -897.560
  H      490.078     103.849    -897.330
  H      488.736     100.866    -900.000
  H      487.098     100.199    -898.270
  H      486.274     102.152    -895.420
  H      486.130      99.444    -896.910
  H      484.702      98.760    -895.080
  H      486.331      99.943    -893.100
  H      488.172      98.316    -893.720
  H      486.583      97.527    -893.550
  P      483.715     100.288    -892.890
  C      485.123     102.214    -891.840
  O      484.664     100.886    -891.770
  O      484.064      98.710    -892.870
  O      482.245     100.579    -892.800
  H      484.974      98.522    -893.150
  H      484.308     102.898    -892.200
  H      485.972     102.258    -892.540
  H      485.440     102.548    -890.860
  H      485.580      93.751    -896.081
  H      486.906      94.092    -897.167
  H      485.636      95.271    -896.940

 3  4  5  6  7  8  9  10  11  12  13  23  28  29  30  31  32 0
 6-311+G(2d,p)
 ****
 33  34 0
 6-311+G(2d,p)
 ****
 1  2  14  15  16  17  18  19  20  21  22  24  25  26 0
 3-21G
 ****
 27  35  36  37  38  39  40  41  42  43  44  45 0
 3-21G
 ****


