%nproc=1
%NoSave
%Mem=1900MB
#P OB98/GEN NMR

erre ene a

0 1
  C     -485.468    -627.049     142.629
  O     -484.973    -628.387     142.571
  P     -484.664    -628.992     141.115
  C     -482.341    -630.079     141.548
  O     -483.073    -629.052     140.909
  C     -481.370    -629.476     142.585
  O     -482.073    -628.912     143.697
  C     -480.426    -630.506     143.182
  O     -479.370    -630.805     142.277
  C     -479.957    -629.800     144.458
  O     -478.776    -628.999     144.221
  C     -481.169    -628.903     144.811
  N     -481.829    -629.305     146.040
  C     -481.712    -628.432     147.129
  O     -481.051    -627.393     147.001
  N     -482.311    -628.767     148.308
  C     -482.962    -629.882     148.415
  N     -483.527    -630.167     149.615
  C     -483.084    -630.850     147.307
  C     -482.499    -630.509     146.148
  O     -485.116    -627.811     140.118
  O     -485.383    -630.267     140.814
  H     -478.658    -628.468     145.041
  H     -485.452    -628.186     139.284
  H     -483.616    -631.778     147.435
  H     -482.535    -631.171     145.283
  H     -480.839    -627.859     144.938
  H     -479.710    -630.520     145.248
  H     -480.973    -631.416     143.445
  H     -480.790    -628.681     142.086
  H     -483.420    -629.483     150.359
  H     -481.784    -630.675     140.816
  H     -484.041    -631.014     149.800
  H     -483.048    -630.759     142.031
  P     -479.635    -631.935     141.178
  C     -479.312    -630.686     138.962
  O     -480.243    -631.167     139.915
  O     -480.940    -632.681     141.765
  O     -478.521    -632.901     140.909
  H     -481.142    -633.467     141.231
  H     -479.848    -630.376     138.067
  H     -478.608    -631.477     138.680
  H     -478.763    -629.831     139.368
  H     -485.630    -626.773     143.650
  H     -486.391    -626.987     142.092
  H     -484.754    -626.385     142.189

 3  4  5  6  7  8  9  10  11  12  13  21  23  27  28  29  30  32 0
 6-311+G(2d,p)
 ****
 34  35 0
 6-311+G(2d,p)
 ****
 1  2  14  15  16  17  18  19  20  22  24  25  26 0
 3-21G
 ****
 31  33  36  37  38  39  40  41  42  43  44  45  46 0
 3-21G
 ****


