%nproc=1
%NoSave
%Mem=1900MB
#P OB98/GEN NMR

erre ene a

0 1
  C      248.947      89.770       9.838
  O      249.597      91.034       9.977
  P      249.220      92.211       8.957
  C      247.949      93.763      10.573
  O      247.853      92.890       9.452
  C      246.561      94.066      11.144
  O      245.921      92.876      11.647
  C      246.595      95.031      12.317
  O      246.837      96.357      11.875
  C      245.228      94.794      12.939
  O      244.211      95.540      12.250
  C      245.025      93.280      12.705
  N      245.219      92.483      13.903
  C      245.151      91.095      13.738
  O      244.895      90.614      12.633
  N      245.355      90.289      14.830
  C      245.600      90.824      15.989
  N      245.796      89.978      17.036
  C      245.668      92.283      16.208
  C      245.464      93.044      15.135
  O      249.261      91.848       7.508
  O      250.310      93.340       9.298
  H      244.382      96.482      12.454
  H      250.493      93.855       8.489
  H      245.881      92.677      17.193
  H      245.495      94.124      15.207
  H      244.007      93.087      12.334
  H      245.197      95.103      13.987
  H      247.380      94.730      13.024
  H      245.945      94.483      10.335
  H      245.732      88.984      16.859
  H      248.438      94.692      10.269
  H      246.043      90.295      17.961
  H      248.593      93.299      11.328
  P      248.332      96.925      11.999
  C      248.592      97.106       9.427
  O      249.102      96.580      10.639
  O      249.004      95.929      13.063
  O      248.428      98.345      12.454
  H      249.652      96.417      13.602
  H      249.375      97.052       8.668
  H      248.284      98.148       9.541
  H      247.738      96.506       9.093
  H      249.307      89.099      10.590
  H      249.156      89.366       8.869
  H      247.891      89.898       9.951

 3  4  5  6  7  8  9  10  11  12  13  23  27  28  29  30  32 0
 6-311+G(2d,p)
 ****
 34  35 0
 6-311+G(2d,p)
 ****
 1  2  14  15  16  17  18  19  20  21  22  24  25  26 0
 3-21G
 ****
 31  33  36  37  38  39  40  41  42  43  44  45  46 0
 3-21G
 ****


