%nproc=1
%NoSave
%Mem=1900MB
#P OB98/GEN NMR

erre ene a

0 1
  C     -233.657    -526.522      19.988
  O     -232.405    -526.905      20.518
  H     -233.899    -527.184      19.154
  H     -233.603    -525.496      19.616
  H     -234.445    -526.602      20.739
  P     -231.938    -526.293      21.925
  C     -233.432    -527.575      23.592
  O     -232.142    -527.456      23.012
  C     -233.395    -527.241      25.085
  O     -234.741    -527.360      25.627
  C     -232.485    -528.163      25.908
  O     -231.972    -527.394      27.003
  C     -233.472    -529.202      26.411
  O     -232.950    -529.925      27.503
  C     -234.690    -528.320      26.701
  N     -235.928    -529.095      26.814
  C     -236.247    -529.570      28.077
  O     -235.532    -529.398      29.067
  N     -237.401    -530.298      28.168
  C     -238.212    -530.643      27.127
  O     -239.221    -531.325      27.262
  C     -237.797    -530.149      25.805
  C     -236.694    -529.407      25.708
  O     -232.546    -524.981      22.293
  O     -230.344    -526.205      21.808
  H     -232.313    -530.606      27.188
  H     -230.011    -525.459      22.342
  H     -237.654    -530.644      29.083
  H     -238.414    -530.412      24.956
  H     -236.361    -529.024      24.747
  H     -234.549    -527.768      27.640
  H     -233.705    -529.927      25.622
  H     -231.667    -528.596      25.326
  H     -233.099    -526.194      25.203
  H     -233.772    -528.608      23.451
  H     -234.126    -526.902      23.075
  P     -230.423    -526.990      27.109
  C     -230.557    -524.591      26.171
  O     -230.318    -525.400      27.322
  O     -229.571    -527.516      25.996
  O     -229.939    -527.584      28.516
  H     -228.986    -527.781      28.481
  H     -230.460    -523.558      26.434
  H     -231.546    -524.774      25.805
  H     -229.845    -524.834      25.410

 6  7  8  9  10  11  12  13  14  15  16  26  31  32  33  34  35 0
 6-311+G(2d,p)
 ****
 36  37 0
 6-311+G(2d,p)
 ****
 1  2  3  4  5  17  18  19  20  21  22  23  24  25 0
 3-21G
 ****
 27  28  29  30  38  39  40  41  42  43  44  45 0
 3-21G
 ****


