%nproc=1
%NoSave
%Mem=1900MB
#P OB98/GEN NMR

erre ene a

0 1
  C      398.222      24.910    -141.457
  O      397.728      25.738    -140.395
  P      398.285      25.675    -138.892
  C      397.767      28.210    -138.786
  O      397.742      26.962    -138.103
  C      397.325      29.351    -137.864
  O      395.935      29.177    -137.486
  C      398.060      29.429    -136.531
  O      399.379      29.926    -136.675
  C      397.128      30.341    -135.732
  O      397.390      31.723    -136.001
  C      395.740      29.948    -136.277
  N      394.936      29.219    -135.312
  C      394.529      29.920    -134.176
  O      394.917      31.074    -133.983
  N      393.702      29.291    -133.275
  C      393.403      28.039    -133.441
  N      392.566      27.475    -132.528
  C      393.924      27.223    -134.554
  C      394.675      27.872    -135.445
  O      399.766      25.499    -138.804
  O      397.515      24.448    -138.208
  H      398.060      24.087    -137.480
  H      397.017      31.912    -136.889
  H      393.678      26.176    -134.638
  H      395.086      27.350    -136.308
  H      395.197      30.846    -136.593
  H      397.240      30.193    -134.651
  H      398.084      28.435    -136.071
  H      397.423      30.296    -138.413
  H      392.218      28.060    -131.784
  H      397.076      28.152    -139.636
  H      392.252      26.515    -132.579
  H      398.779      28.387    -139.172
  P      400.574      28.971    -136.187
  C      402.040      29.647    -138.223
  O      401.935      29.535    -136.812
  O      400.316      27.606    -136.990
  O      400.611      28.734    -134.712
  H      400.515      26.846    -136.413
  H      402.750      30.445    -138.457
  H      401.078      29.876    -138.681
  H      402.422      28.706    -138.627
  H      397.695      25.137    -142.360
  H      398.073      23.881    -141.206
  H      399.267      25.095    -141.597

 3  4  5  6  7  8  9  10  11  12  13  24  27  28  29  30  32 0
 6-311+G(2d,p)
 ****
 34  35 0
 6-311+G(2d,p)
 ****
 1  2  14  15  16  17  18  19  20  21  22  23  25  26 0
 3-21G
 ****
 31  33  36  37  38  39  40  41  42  43  44  45  46 0
 3-21G
 ****


