%nproc=1
%NoSave
%Mem=1900MB
#P OB98/GEN NMR

erre ene a

0 1
  C      209.977      37.693     -71.029
  O      209.628      36.883     -72.157
  P      210.749      36.647     -73.278
  C      209.694      37.897     -75.292
  O      210.716      37.877     -74.307
  C      209.961      38.974     -76.355
  O      208.935      38.947     -77.387
  C      209.985      40.398     -75.792
  O      210.879      41.183     -76.591
  C      208.567      40.875     -76.042
  O      208.472      42.299     -75.994
  C      208.300      40.242     -77.407
  N      204.605      41.679     -80.523
  C      205.939      42.034     -80.503
  N      206.357      42.868     -81.478
  N      206.790      41.607     -79.605
  C      206.234      40.750     -78.712
  C      204.928      40.328     -78.625
  C      203.994      40.829     -79.608
  O      202.797      40.560     -79.668
  N      204.747      39.476     -77.564
  C      205.942      39.388     -77.011
  N      206.883      40.114     -77.691
  O      210.151      35.431     -74.133
  O      212.094      36.308     -72.725
  H      208.841      42.645     -76.836
  H      210.660      34.620     -73.953
  H      203.991      42.047     -81.232
  H      206.178      38.822     -76.123
  H      208.738      40.825     -78.228
  H      207.894      40.460     -75.279
  H      205.767      43.192     -82.230
  H      210.278      40.472     -74.741
  H      207.340      43.110     -81.510
  H      210.918      38.753     -76.843
  H      208.724      38.085     -74.824
  H      209.616      36.903     -75.743
  P      212.364      41.391     -76.024
  C      212.068      43.958     -75.767
  O      212.320      42.719     -75.131
  O      213.200      41.837     -77.315
  O      212.953      40.189     -75.361
  H      214.142      41.615     -77.201
  H      211.034      44.256     -75.573
  H      212.236      43.908     -76.846
  H      212.739      44.711     -75.343
  H      209.139      37.764     -70.368
  H      210.251      38.672     -71.364
  H      210.802      37.249     -70.513

 3  4  5  6  7  8  9  10  11  12  23  26  30  31 0
 6-311+G(2d,p)
 ****
 33  35  36  37  38 0
 6-311+G(2d,p)
 ****
 1  2  13  14  15  16  17  18  19  20  21  22  24  25 0
 3-21G
 ****
 27  28  29  32  34  39  40  41  42  43  44  45  46  47  48  49 0
 3-21G
 ****


