%nproc=1
%NoSave
%Mem=1900MB
#P OB98/GEN NMR

erre ene a

0 1
  C      -59.418      69.616     142.790
  O      -59.530      68.888     141.585
  H      -59.882      70.597     142.655
  H      -58.362      69.760     143.035
  H      -59.925      69.098     143.610
  P      -59.197      67.321     141.645
  C      -56.777      68.033     141.049
  O      -57.604      67.184     141.829
  C      -55.357      67.468     140.970
  O      -54.783      67.464     142.304
  C      -55.293      66.034     140.430
  O      -54.134      65.903     139.601
  C      -55.120      65.190     141.684
  O      -54.481      63.942     141.422
  C      -54.307      66.131     142.569
  N      -51.990      64.050     146.533
  C      -51.517      64.319     145.263
  N      -50.237      63.976     145.007
  N      -52.239      64.877     144.324
  C      -53.491      65.200     144.734
  C      -54.076      64.981     145.960
  C      -53.275      64.337     146.982
  O      -53.645      64.051     148.117
  N      -55.377      65.420     145.974
  C      -55.575      65.903     144.761
  N      -54.459      65.797     143.975
  O      -59.444      66.839     140.138
  O      -60.013      66.528     142.613
  H      -53.511      64.089     141.486
  H      -60.189      66.209     140.111
  H      -51.393      63.606     147.213
  H      -56.502      66.329     144.396
  H      -53.233      66.097     142.341
  H      -56.101      64.986     142.129
  H      -49.609      63.588     145.696
  H      -56.181      65.748     139.862
  H      -49.856      64.198     144.093
  H      -54.745      68.144     140.363
  H      -56.749      69.026     141.513
  H      -57.197      68.124     140.041
  P      -54.376      65.885     138.012
  C      -54.307      63.297     137.876
  O      -55.052      64.481     137.622
  O      -52.892      65.764     137.419
  O      -55.075      67.097     137.493
  H      -52.627      66.613     137.015
  H      -54.876      62.445     137.569
  H      -54.095      63.226     138.922
  H      -53.389      63.329     137.328

 6  7  8  9  10  11  12  13  14  15  26  29  33  34 0
 6-311+G(2d,p)
 ****
 36  38  39  40  41 0
 6-311+G(2d,p)
 ****
 1  2  3  4  5  16  17  18  19  20  21  22  23  24  25 0
 3-21G
 ****
 27  28  30  31  32  35  37  42  43  44  45  46  47 0
 3-21G
 ****
 48  49 0
 3-21G
 ****


