%nproc=1
%NoSave
%Mem=1900MB
#P OB98/GEN NMR

erre ene a

0 1
  C      -50.718      12.379      94.655
  O      -52.000      12.964      94.574
  H      -49.967      13.173      94.609
  H      -50.562      11.705      93.809
  H      -50.591      11.833      95.595
  P      -53.288      12.065      94.897
  C      -53.144      12.749      97.384
  O      -53.953      12.699      96.215
  C      -53.283      14.116      98.058
  O      -52.802      15.136      97.128
  C      -54.737      14.472      98.435
  O      -54.720      15.245      99.641
  C      -55.145      15.345      97.265
  O      -56.255      16.151      97.572
  C      -53.852      16.116      97.005
  N      -53.865      16.757      95.691
  C      -54.193      18.107      95.656
  O      -54.477      18.768      96.655
  N      -54.263      18.675      94.413
  C      -54.148      18.014      93.225
  O      -54.296      18.554      92.140
  C      -53.855      16.573      93.323
  C      -53.721      16.019      94.532
  O      -53.056      10.592      94.964
  O      -54.346      12.464      93.763
  H      -57.042      15.591      97.719
  H      -55.017      11.763      93.663
  H      -54.490      19.657      94.371
  H      -53.771      16.012      92.401
  H      -53.521      14.958      94.643
  H      -53.689      16.877      97.776
  H      -55.413      14.719      96.405
  H      -55.373      13.595      98.561
  H      -52.625      14.153      98.936
  H      -52.101      12.583      97.087
  H      -53.449      11.957      98.074
  P      -54.521      14.566     101.081
  C      -52.060      14.567     101.811
  O      -53.302      15.260     101.871
  O      -54.453      13.071     101.049
  O      -55.812      15.029     101.917
  H      -56.183      14.260     102.389
  H      -51.322      15.109     102.365
  H      -51.749      14.481     100.791
  H      -52.176      13.590     102.232

 6  7  8  9  10  11  12  13  14  15  16  26  31  32  33  34  35 0
 6-311+G(2d,p)
 ****
 36  37 0
 6-311+G(2d,p)
 ****
 1  2  3  4  5  17  18  19  20  21  22  23  24  25 0
 3-21G
 ****
 27  28  29  30  38  39  40  41  42  43  44  45 0
 3-21G
 ****


