%nproc=1
%NoSave
%Mem=1900MB
#P OB98/GEN NMR

erre ene a

0 1
  C     -109.936     232.963      -9.586
  O     -109.854     234.368      -9.839
  P     -109.126     235.315      -8.767
  C     -106.557     235.202      -8.574
  O     -107.663     235.697      -9.313
  C     -105.259     235.278      -9.403
  O     -105.520     234.848     -10.764
  C     -104.671     236.702      -9.458
  O     -103.284     236.749      -9.116
  C     -105.025     237.173     -10.864
  O     -104.167     238.203     -11.335
  C     -105.042     235.870     -11.668
  N     -105.869     235.973     -12.875
  C     -105.352     235.399     -14.035
  O     -104.235     234.892     -14.099
  N     -106.152     235.489     -15.146
  C     -107.342     236.139     -15.232
  O     -107.995     236.227     -16.264
  C     -107.808     236.784     -13.989
  C     -107.059     236.671     -12.884
  O     -109.175     234.847      -7.349
  O     -109.921     236.708      -8.925
  H     -104.575     238.600     -12.135
  H     -110.028     237.098      -8.034
  H     -105.800     235.060     -15.989
  H     -108.740     237.329     -14.019
  H     -107.373     237.143     -11.964
  H     -104.035     235.590     -11.991
  H     -106.044     237.586     -10.846
  H     -105.147     237.363      -8.725
  H     -104.543     234.586      -8.949
  H     -106.732     234.158      -8.301
  H     -106.471     235.754      -7.631
  P     -102.705     237.417      -7.783
  C     -103.682     236.168      -5.729
  O     -102.612     236.285      -6.653
  O     -103.367     238.690      -7.349
  O     -101.164     237.692      -8.153
  H     -100.897     238.565      -7.791
  H     -103.324     235.640      -4.842
  H     -104.489     235.580      -6.180
  H     -104.070     237.151      -5.429
  H     -110.448     232.484     -10.394
  H     -110.472     232.795      -8.675
  H     -108.949     232.558      -9.499

 3  4  5  6  7  8  9  10  11  12  13  23  28  29  30  31  32 0
 6-311+G(2d,p)
 ****
 33  34 0
 6-311+G(2d,p)
 ****
 1  2  14  15  16  17  18  19  20  21  22  24  25  26  27 0
 3-21G
 ****
 35  36  37  38  39  40  41  42  43  44  45 0
 3-21G
 ****


