%nproc=1
%NoSave
%Mem=1900MB
#P OB98/GEN NMR

erre ene a

0 1
  C     -233.175      89.575     -79.749
  O     -232.246      90.318     -78.951
  P     -232.365      90.126     -77.358
  C     -231.834      87.690     -76.623
  O     -231.322      88.984     -76.916
  C     -230.724      86.637     -76.550
  O     -230.126      86.487     -77.862
  C     -229.587      86.966     -75.573
  O     -229.147      85.747     -74.956
  C     -228.470      87.446     -76.484
  O     -227.188      87.312     -75.878
  C     -228.700      86.545     -77.697
  N     -225.444      85.448     -81.412
  C     -225.946      84.641     -80.412
  N     -225.499      83.363     -80.386
  N     -226.810      85.042     -79.517
  C     -227.194      86.335     -79.683
  C     -226.773      87.233     -80.642
  C     -225.784      86.782     -81.599
  O     -225.262      87.465     -82.474
  N     -227.388      88.452     -80.484
  C     -228.168      88.294     -79.434
  N     -228.078      87.028     -78.910
  O     -233.797      89.436     -77.180
  O     -232.276      91.403     -76.589
  H     -226.523      87.397     -76.590
  H     -234.352      89.967     -76.580
  H     -224.763      85.092     -82.061
  H     -228.795      89.060     -78.999
  H     -228.339      85.527     -77.513
  H     -228.628      88.502     -76.728
  H     -224.885      82.970     -81.081
  H     -229.849      87.701     -74.805
  H     -225.893      82.743     -79.688
  H     -231.182      85.675     -76.290
  H     -232.553      87.403     -77.395
  H     -232.371      87.736     -75.667
  P     -229.590      85.520     -73.431
  C     -232.186      85.478     -73.620
  O     -230.989      84.736     -73.496
  O     -230.001      86.988     -72.941
  O     -228.534      84.907     -72.572
  H     -229.880      87.068     -71.977
  H     -231.998      86.529     -73.857
  H     -232.739      85.421     -72.677
  H     -232.793      85.039     -74.418
  H     -233.001      89.782     -80.784
  H     -234.174      89.860     -79.491
  H     -233.044      88.529     -79.567

 3  4  5  6  7  8  9  10  11  12  23  26  30  31  33  0
 6-311+G(2d,p)
 ****
 35  36  37  38 0
 6-311+G(2d,p)
 ****
 1  2  13  14  15  16  17  18  19  20  21  22  24  25  27  28  29 0
 3-21G
 ****
 32  34  39  40  41  42  43  44  45  46  47  48  49 0
 3-21G
 ****


