%nproc=1
%NoSave
%Mem=1900MB
#P OB98/GEN NMR

erre ene a

0 1
  C     -484.746     561.037     505.421
  O     -484.470     560.314     504.209
  P     -485.620     560.196     503.088
  C     -484.559     560.248     500.698
  O     -485.135     560.975     501.773
  C     -483.202     560.845     500.324
  O     -482.272     560.716     501.424
  C     -482.521     560.170     499.146
  O     -483.088     560.561     497.908
  C     -481.077     560.636     499.325
  O     -480.889     561.947     498.771
  C     -480.942     560.667     500.860
  N     -480.180     559.538     501.384
  C     -478.800     559.684     501.416
  O     -478.217     560.675     500.982
  N     -478.102     558.629     501.937
  C     -478.630     557.442     502.357
  O     -477.949     556.527     502.797
  C     -480.088     557.315     502.220
  C     -480.782     558.349     501.742
  O     -486.745     561.185     503.663
  O     -486.177     558.826     502.877
  H     -479.924     562.077     498.681
  H     -487.622     560.890     503.358
  H     -477.100     558.728     502.000
  H     -480.548     556.380     502.520
  H     -481.864     558.271     501.639
  H     -480.450     561.595     501.176
  H     -480.360     559.974     498.831
  H     -482.560     559.081     499.266
  H     -483.343     561.918     500.126
  H     -485.222     560.301     499.829
  H     -484.452     559.201     500.994
  P     -484.280     559.646     497.342
  C     -486.241     561.159     496.508
  O     -485.618     560.496     497.585
  O     -484.322     558.484     498.442
  O     -484.046     559.170     495.947
  H     -484.089     558.810     499.329
  H     -486.123     560.606     495.574
  H     -485.809     562.158     496.399
  H     -487.309     561.257     496.729
  H     -483.882     561.018     506.052
  H     -485.569     560.580     505.930
  H     -484.992     562.051     505.183

 3  4  5  6  7  8  9  10  11  12  13  23  28  29  30  31  32 0
 6-311+G(2d,p)
 ****
 33  34 0
 6-311+G(2d,p)
 ****
 1  2  14  15  16  17  18  19  20  21  22  24  25  26 0
 3-21G
 ****
 27  35  36  37  38  39  40  41  42  43  44  45 0
 3-21G
 ****


