%nproc=1
%NoSave
%Mem=1900MB
#P OB98/GEN NMR

erre ene a

0 1
  C     -607.904     349.225    -740.862
  O     -606.493     349.221    -741.011
  H     -608.234     350.247    -740.693
  H     -608.198     348.614    -740.005
  H     -608.382     348.842    -741.772
  P     -605.757     347.817    -741.267
  C     -604.702     346.770    -739.153
  O     -605.897     346.998    -739.893
  C     -604.170     348.087    -738.601
  O     -605.262     348.909    -738.141
  C     -603.214     347.930    -737.416
  O     -601.909     347.609    -737.877
  C     -603.307     349.312    -736.795
  O     -602.528     350.248    -737.572
  C     -604.817     349.618    -736.946
  N     -606.857     350.975    -732.507
  C     -606.013     351.672    -733.346
  N     -605.629     352.899    -732.925
  N     -605.573     351.214    -734.487
  C     -605.986     349.954    -734.751
  C     -606.805     349.145    -733.992
  C     -607.332     349.696    -732.755
  O     -608.097     349.109    -731.989
  N     -606.949     347.897    -734.544
  C     -606.248     347.968    -735.665
  N     -605.626     349.184    -735.822
  O     -604.358     347.882    -741.796
  O     -606.745     347.037    -742.261
  H     -602.831     351.133    -737.330
  H     -606.496     347.187    -743.191
  H     -607.153     351.378    -731.628
  H     -606.154     347.156    -736.382
  H     -605.010     350.686    -737.106
  H     -602.938     349.355    -735.778
  H     -605.703     353.177    -731.955
  H     -603.587     347.195    -736.693
  H     -604.978     353.414    -733.503
  H     -603.689     348.634    -739.427
  H     -603.969     346.319    -739.838
  H     -604.885     346.073    -738.332
  P     -600.862     346.837    -736.921
  C     -598.965     348.382    -736.065
  O     -600.322     347.967    -735.917
  O     -599.797     346.088    -737.648
  O     -601.779     345.933    -735.976
  H     -601.963     345.035    -736.352
  H     -598.740     349.134    -735.337
  H     -598.819     348.781    -737.047
  H     -598.318     347.542    -735.922

 6  7  8  9  10  11  12  13  14  15  26  29  33  34 0
 6-311+G(2d,p)
 ****
 36  38  39  40  41 0
 6-311+G(2d,p)
 ****
 1  2  3  4  5  16  17  18  19  20  21  22  23  24  25 0
 3-21G
 ****
 27  28  30  31  32  35  37  42  43  44  45  46  47 0
 3-21G
 ****
 48  49 0
 3-21G
 ****


