%nproc=1
%NoSave
%Mem=1900MB
#P OB98/GEN NMR

erre ene a

0 1
  C       35.927     843.558     149.978
  O       37.306     843.258     149.754
  P       38.419     843.427     150.904
  C       39.122     840.951     150.799
  O       38.647     842.015     151.619
  C       39.886     839.898     151.616
  O       41.025     840.490     152.275
  C       39.055     839.240     152.719
  O       38.205     838.247     152.178
  C       40.164     838.716     153.636
  O       40.684     837.474     153.138
  C       41.220     839.812     153.538
  N       43.169     841.124     158.083
  C       43.473     840.128     157.214
  N       42.899     839.846     156.026
  C       41.939     840.732     155.745
  C       41.509     841.792     156.536
  C       42.170     841.970     157.761
  N       41.842     842.973     158.644
  N       40.467     842.460     155.924
  C       40.287     841.824     154.778
  N       41.147     840.775     154.627
  O       38.158     844.563     151.841
  O       39.797     843.657     150.109
  H       41.000     837.631     152.226
  H       40.402     844.195     150.653
  H       44.294     839.475     157.521
  H       39.546     842.100     154.034
  H       42.230     839.414     153.524
  H       39.809     838.525     154.654
  H       38.471     839.991     153.249
  H       40.264     839.149     150.914
  H       39.792     841.375     150.045
  H       42.352     843.019     159.514
  H       41.074     843.581     158.434
  H       38.271     840.488     150.298
  P       36.778     837.960     152.841
  C       35.514     837.638     150.625
  O       35.665     838.439     151.786
  O       36.600     838.484     154.228
  O       36.648     836.368     152.788
  H       36.089     836.069     153.538
  H       36.307     837.891     149.909
  H       34.543     837.853     150.178
  H       35.573     836.571     150.873
  H       35.372     843.374     149.082
  H       35.826     844.587     150.255
  H       35.550     842.938     150.765

 3  4  5  6  7  8  9  10  11  12  22  25  29  30  31  32 0
 6-311+G(2d,p)
 ****
 33  36  37 0
 6-311+G(2d,p)
 ****
 1  2  13  14  15  16  17  18  19  20  21  23  24  26 0
 3-21G
 ****
 27  28  34  35  38  39  40  41  42  43  44  45  46  47  48 0
 3-21G
 ****


