%nproc=1
%NoSave
%Mem=1900MB
#P OB98/GEN NMR

erre ene a

0 1
  C     -470.036    -755.727    -233.351
  O     -468.823    -755.560    -232.642
  H     -470.270    -754.791    -233.870
  H     -470.845    -755.951    -232.653
  H     -469.953    -756.524    -234.092
  P     -468.111    -756.853    -232.020
  C     -469.058    -756.857    -229.619
  O     -469.113    -757.443    -230.914
  C     -470.283    -757.256    -228.791
  O     -470.291    -758.716    -228.647
  C     -470.304    -756.659    -227.365
  O     -471.674    -756.451    -227.007
  C     -469.694    -757.795    -226.561
  O     -469.889    -757.620    -225.183
  C     -470.385    -758.986    -227.231
  N     -469.781    -760.267    -226.901
  C     -470.007    -760.774    -225.622
  O     -470.705    -760.210    -224.778
  N     -469.392    -761.964    -225.340
  C     -468.586    -762.673    -226.179
  O     -468.079    -763.751    -225.874
  C     -468.360    -762.078    -227.506
  C     -468.955    -760.920    -227.801
  O     -466.701    -756.659    -231.561
  O     -468.197    -757.940    -233.196
  H     -467.356    -757.960    -233.685
  H     -470.842    -757.647    -224.965
  H     -469.551    -762.349    -224.411
  H     -467.707    -762.602    -228.192
  H     -468.810    -760.446    -228.767
  H     -471.448    -759.011    -226.980
  H     -468.613    -757.826    -226.727
  H     -469.758    -755.710    -227.295
  H     -471.190    -756.989    -229.346
  H     -469.032    -755.768    -229.737
  H     -468.143    -757.184    -229.115
  P     -472.366    -755.006    -226.960
  C     -472.618    -754.526    -224.439
  O     -471.907    -754.233    -225.634
  O     -473.849    -755.038    -227.136
  O     -471.680    -754.167    -228.147
  H     -472.344    -753.569    -228.542
  H     -472.216    -753.948    -223.634
  H     -472.522    -755.567    -224.213
  H     -473.652    -754.283    -224.570

 6  7  8  9  10  11  12  13  14  15  16  27  31  32  33  34  35 0
 6-311+G(2d,p)
 ****
 36  37 0
 6-311+G(2d,p)
 ****
 1  2  3  4  5  17  18  19  20  21  22  23  24  25 0
 3-21G
 ****
 26  28  29  30  38  39  40  41  42  43  44  45 0
 3-21G
 ****


