%nproc=1
%NoSave
%Mem=1900MB
#P OB98/GEN NMR

erre ene a

0 1
  C     -165.202     -80.742     -10.446
  O     -165.884     -81.950     -10.742
  P     -167.383     -81.932     -11.317
  C     -168.142     -84.143     -10.214
  O     -167.803     -83.476     -11.422
  C     -168.311     -85.637     -10.477
  O     -169.271     -85.838     -11.533
  C     -167.041     -86.347     -10.930
  O     -166.163     -86.570      -9.838
  C     -167.624     -87.600     -11.570
  O     -167.971     -88.561     -10.562
  C     -168.906     -87.051     -12.233
  N     -168.745     -86.806     -13.662
  C     -168.233     -87.862     -14.421
  O     -167.946     -88.939     -13.899
  N     -168.087     -87.688     -15.775
  C     -168.401     -86.554     -16.320
  N     -168.300     -86.460     -17.674
  C     -168.891     -85.397     -15.548
  C     -169.042     -85.593     -14.240
  O     -167.562     -81.151     -12.574
  O     -168.275     -81.413     -10.100
  H     -167.141     -88.803     -10.107
  H     -168.359     -80.428     -10.063
  H     -169.127     -84.466     -16.045
  H     -169.417     -84.799     -13.606
  H     -169.737     -87.749     -12.084
  H     -166.943     -88.085     -12.276
  H     -166.522     -85.751     -11.690
  H     -168.704     -86.104      -9.564
  H     -168.131     -87.324     -18.177
  H     -169.089     -83.734      -9.844
  H     -168.785     -85.736     -18.191
  H     -167.363     -83.958      -9.468
  P     -165.094     -85.424      -9.500
  C     -162.815     -86.366     -10.300
  O     -163.708     -86.185      -9.217
  O     -165.563     -84.896      -8.064
  O     -165.027     -84.327     -10.509
  H     -166.053     -84.058      -8.154
  H     -161.846     -86.676      -9.901
  H     -162.685     -85.435     -10.857
  H     -163.189     -87.151     -10.963
  H     -164.223     -80.966     -10.077
  H     -165.747     -80.197      -9.704
  H     -165.121     -80.151     -11.334

 3  4  5  6  7  8  9  10  11  12  13  23  27  28  29  30  32 0
 6-311+G(2d,p)
 ****
 34  35 0
 6-311+G(2d,p)
 ****
 1  2  14  15  16  17  18  19  20  21  22  24  25  26 0
 3-21G
 ****
 31  33  36  37  38  39  40  41  42  43  44  45  46 0
 3-21G
 ****


