%nproc=1
%NoSave
%Mem=1900MB
#P OB98/GEN NMR

erre ene a

0 1
  C      414.288     672.284     509.657
  O      413.341     671.808     508.713
  H      413.807     673.030     510.289
  H      415.133     672.755     509.141
  H      414.645     671.462     510.286
  P      413.817     670.741     507.614
  C      414.611     668.290     507.696
  O      413.882     669.320     508.349
  C      413.820     666.982     507.697
  O      413.701     666.539     509.074
  C      412.395     667.157     507.127
  O      412.091     666.226     506.093
  C      411.512     667.139     508.376
  O      410.186     666.717     508.155
  C      412.309     666.266     509.352
  N      412.015     666.523     510.763
  C      410.911     665.865     511.312
  O      410.198     665.061     510.712
  N      410.659     666.144     512.629
  C      411.354     667.006     513.419
  O      411.069     667.217     514.594
  C      412.478     667.691     512.780
  C      412.755     667.433     511.492
  O      415.048     671.108     506.844
  O      412.551     670.597     506.650
  H      409.804     666.459     509.024
  H      412.697     671.100     505.828
  H      409.874     665.658     513.040
  H      413.047     668.396     513.377
  H      413.586     667.919     510.984
  H      412.132     665.211     509.165
  H      411.461     668.159     508.768
  H      412.293     668.131     506.632
  H      414.381     666.220     507.151
  H      415.561     668.156     508.237
  H      414.831     668.589     506.659
  P      411.823     666.622     504.570
  C      413.389     668.330     503.334
  O      413.225     667.045     503.915
  O      410.674     667.535     504.334
  O      411.485     665.211     503.869
  H      410.844     665.401     503.148
  H      414.384     668.425     502.953
  H      413.218     669.081     504.076
  H      412.688     668.452     502.535

 6  7  8  9  10  11  12  13  14  15  16  26  31  32  33  34  35 0
 6-311+G(2d,p)
 ****
 36  37 0
 6-311+G(2d,p)
 ****
 1  2  3  4  5  17  18  19  20  21  22  23  24  25 0
 3-21G
 ****
 27  28  29  30  38  39  40  41  42  43  44  45 0
 3-21G
 ****


