%nproc=1
%NoSave
%Mem=1900MB
#P OB98/GEN NMR

erre ene a

0 1
  C      135.970     400.529     159.118
  O      136.590     399.299     158.789
  H      135.217     400.750     158.357
  H      136.700     401.341     159.143
  H      135.466     400.446     160.090
  P      137.907     398.878     159.610
  C      137.609     396.503     160.589
  O      137.388     397.900     160.779
  C      136.316     395.795     160.168
  O      135.860     396.302     158.892
  C      136.475     394.294     159.956
  O      136.700     393.570     161.150
  C      135.273     393.956     159.083
  O      134.086     393.698     159.829
  C      135.101     395.254     158.257
  N      135.490     395.070     156.863
  C      134.481     394.655     156.002
  O      133.323     394.431     156.373
  N      134.843     394.466     154.696
  C      136.112     394.601     154.191
  O      136.381     394.378     153.017
  C      137.142     395.016     155.159
  C      136.795     395.231     156.428
  O      138.763     400.006     160.101
  O      138.667     397.878     158.614
  H      133.922     394.488     160.385
  H      139.611     397.757     158.886
  H      134.124     394.178     154.054
  H      138.158     395.131     154.794
  H      137.537     395.536     157.160
  H      134.050     395.578     158.274
  H      135.463     393.071     158.468
  H      137.363     394.133     159.335
  H      135.542     396.012     160.913
  H      137.953     396.083     161.542
  H      138.390     396.352     159.831
  P      138.160     393.278     161.732
  C      137.856     393.555     164.300
  O      138.337     394.123     163.089
  O      139.290     393.253     160.745
  O      137.976     391.775     162.296
  H      138.827     391.310     162.175
  H      138.044     394.229     165.109
  H      138.359     392.628     164.484
  H      136.804     393.380     164.219

 6  7  8  9  10  11  12  13  14  15  16  26  31  32  33  34  35 0
 6-311+G(2d,p)
 ****
 36  37 0
 6-311+G(2d,p)
 ****
 1  2  3  4  5  17  18  19  20  21  22  23  24  25 0
 3-21G
 ****
 27  28  29  30  38  39  40  41  42  43  44  45 0
 3-21G
 ****


