%nproc=1
%NoSave
%Mem=1900MB
#P OB98/GEN NMR

erre ene a

0 1
  C       15.094     -29.139     -24.204
  O       15.180     -30.372     -23.509
  P       13.910     -31.351     -23.564
  C       14.335     -32.059     -26.062
  O       13.491     -31.435     -25.108
  C       13.572     -33.161     -26.801
  O       13.417     -34.311     -25.943
  C       12.160     -32.779     -27.226
  O       12.161     -31.947     -28.376
  C       11.533     -34.152     -27.435
  O       11.910     -34.683     -28.716
  C       12.187     -34.973     -26.305
  N       11.318     -35.149     -25.143
  C       10.314     -36.105     -25.266
  O       10.145     -36.778     -26.280
  N        9.492     -36.248     -24.179
  C        9.533     -35.503     -23.037
  O        8.745     -35.643     -22.111
  C       10.595     -34.486     -22.979
  C       11.424     -34.359     -24.017
  O       12.796     -30.425     -22.888
  O       14.147     -32.656     -22.885
  H       12.987     -29.478     -23.013
  H       11.677     -34.003     -29.377
  H        8.770     -36.950     -24.235
  H       10.654     -33.870     -22.092
  H       12.205     -33.608     -23.996
  H       12.472     -35.965     -26.675
  H       10.439     -34.126     -27.400
  H       11.650     -32.265     -26.402
  H       14.167     -33.464     -27.672
  H       15.196     -32.492     -25.547
  H       14.694     -31.302     -26.768
  P       10.785     -31.185     -28.712
  C       11.905     -29.046     -27.713
  O       10.765     -29.872     -27.795
  O        9.715     -32.160     -28.031
  O       10.570     -30.953     -30.172
  H        9.999     -32.484     -27.160
  H       11.597     -28.059     -27.355
  H       12.388     -28.933     -28.686
  H       12.615     -29.473     -27.000
  H       16.007     -28.595     -24.079
  H       14.280     -28.565     -23.812
  H       14.930     -29.327     -25.245

 3  4  5  6  7  8  9  10  11  12  13  24  28  29  30  31  32 0
 6-311+G(2d,p)
 ****
 33  34 0
 6-311+G(2d,p)
 ****
 1  2  14  15  16  17  18  19  20  21  22  23  25  26  27 0
 3-21G
 ****
 35  36  37  38  39  40  41  42  43  44  45 0
 3-21G
 ****


