%nproc=1
%NoSave
%Mem=1900MB
#P OB98/GEN NMR

erre ene a

0 1
  C      -71.936     212.804    -255.475
  O      -72.602     213.283    -256.626
  H      -71.005     212.319    -255.785
  H      -72.551     212.075    -254.943
  H      -71.691     213.637    -254.809
  P      -74.109     213.807    -256.464
  C      -73.904     215.316    -258.549
  O      -74.582     214.218    -257.942
  C      -74.691     215.859    -259.744
  O      -76.032     216.202    -259.341
  C      -74.115     217.138    -260.330
  O      -72.877     216.961    -260.991
  C      -75.298     217.714    -261.090
  O      -75.430     217.198    -262.412
  C      -76.494     217.241    -260.225
  N      -77.111     218.345    -259.497
  C      -78.170     218.973    -260.136
  O      -78.579     218.661    -261.255
  N      -78.739     220.021    -259.462
  C      -78.321     220.517    -258.262
  O      -78.849     221.487    -257.723
  C      -77.179     219.828    -257.645
  C      -76.631     218.789    -258.281
  O      -74.320     214.880    -255.439
  O      -74.944     212.474    -256.176
  H      -76.303     217.481    -262.745
  H      -75.835     212.683    -255.798
  H      -79.519     220.482    -259.902
  H      -76.818     220.198    -256.695
  H      -75.781     218.263    -257.847
  H      -77.263     216.789    -260.864
  H      -75.228     218.801    -261.179
  H      -73.915     217.829    -259.501
  H      -74.758     215.068    -260.501
  H      -72.930     214.954    -258.895
  H      -73.743     216.104    -257.804
  P      -71.659     217.987    -260.857
  C      -70.031     216.351    -262.060
  O      -70.596     217.654    -262.022
  O      -71.153     218.250    -259.478
  O      -72.336     219.354    -261.392
  H      -71.940     220.089    -260.890
  H      -69.349     216.282    -262.882
  H      -70.810     215.628    -262.181
  H      -69.508     216.162    -261.146

 6  7  8  9  10  11  12  13  14  15  16  26  31  32  33  34  35 0
 6-311+G(2d,p)
 ****
 36  37 0
 6-311+G(2d,p)
 ****
 1  2  3  4  5  17  18  19  20  21  22  23  24  25 0
 3-21G
 ****
 27  28  29  30  38  39  40  41  42  43  44  45 0
 3-21G
 ****


