%nproc=1
%NoSave
%Mem=1900MB
#P OB98/GEN NMR

erre ene a

0 1
  C     -419.061     348.979     587.311
  O     -417.852     348.341     586.943
  P     -416.440     349.065     587.188
  C     -414.000     348.268     587.413
  O     -415.345     347.898     587.102
  C     -413.037     347.117     587.093
  O     -413.330     345.964     587.910
  C     -413.104     346.634     585.654
  O     -412.426     347.528     584.789
  C     -412.459     345.261     585.775
  O     -411.027     345.353     585.759
  C     -412.961     344.791     587.161
  N     -414.058     343.839     587.062
  C     -413.693     342.514     586.812
  O     -412.505     342.206     586.660
  N     -414.682     341.561     586.701
  C     -415.926     341.923     586.796
  N     -416.858     340.939     586.664
  C     -416.353     343.317     587.023
  C     -415.377     344.207     587.146
  O     -416.369     349.923     588.410
  O     -416.210     349.876     585.830
  H     -410.806     346.180     586.236
  H     -416.792     350.676     585.784
  H     -417.402     343.565     587.094
  H     -415.600     345.256     587.312
  H     -412.145     344.314     587.719
  H     -412.752     344.590     584.954
  H     -414.153     346.516     585.342
  H     -412.019     347.456     587.333
  H     -416.527     340.003     586.478
  H     -413.943     348.493     588.479
  H     -417.854     341.110     586.687
  H     -413.733     349.168     586.851
  P     -412.833     347.617     583.245
  C     -411.676     348.511     581.136
  O     -411.837     348.660     582.537
  O     -414.287     347.849     582.982
  O     -412.363     346.208     582.652
  H     -413.070     345.855     582.070
  H     -411.262     349.445     580.739
  H     -412.627     348.309     580.653
  H     -410.980     347.702     580.931
  H     -419.887     348.343     587.070
  H     -419.154     349.902     586.778
  H     -419.056     349.174     588.363

 3  4  5  6  7  8  9  10  11  12  13  23  27  28  29  30  32 0
 6-311+G(2d,p)
 ****
 34  35 0
 6-311+G(2d,p)
 ****
 1  2  14  15  16  17  18  19  20  21  22  24  25  26 0
 3-21G
 ****
 31  33  36  37  38  39  40  41  42  43  44  45  46 0
 3-21G
 ****


