%nproc=1
%NoSave
%Mem=1900MB
#P OB98/GEN NMR

erre ene a

0 1
  C      -51.390    -268.314     -47.952
  O      -52.249    -267.830     -48.967
  H      -51.230    -267.516     -47.221
  H      -50.423    -268.602     -48.372
  H      -51.843    -269.168     -47.444
  P      -52.633    -268.820     -50.167
  C      -54.823    -269.439     -48.947
  O      -53.620    -269.915     -49.534
  C      -56.005    -269.741     -49.862
  O      -56.104    -271.157     -50.103
  C      -57.356    -269.302     -49.295
  O      -57.554    -267.912     -49.509
  C      -58.292    -270.174     -50.113
  O      -58.430    -269.629     -51.440
  C      -57.516    -271.502     -50.160
  N      -60.860    -274.821     -48.287
  C      -60.936    -274.025     -49.415
  N      -62.086    -274.094     -50.118
  N      -59.980    -273.220     -49.803
  C      -58.921    -273.206     -48.962
  C      -58.736    -273.935     -47.811
  C      -59.777    -274.862     -47.421
  O      -59.743    -275.601     -46.437
  N      -57.561    -273.604     -47.186
  C      -57.015    -272.704     -47.981
  N      -57.810    -272.416     -49.067
  O      -51.490    -269.409     -50.937
  O      -53.598    -267.948     -51.097
  H      -59.000    -270.247     -51.934
  H      -53.097    -267.496     -51.800
  H      -61.639    -275.404     -48.032
  H      -56.054    -272.235     -47.821
  H      -57.685    -272.050     -51.094
  H      -59.292    -270.248     -49.687
  H      -62.938    -274.465     -49.713
  H      -57.459    -269.573     -48.240
  H      -62.182    -273.481     -50.918
  H      -55.811    -269.262     -50.831
  H      -54.716    -268.359     -48.802
  H      -54.984    -269.909     -47.972
  P      -58.359    -267.019     -48.445
  C      -56.064    -266.046     -47.762
  O      -57.279    -266.638     -47.324
  O      -59.607    -267.641     -47.921
  O      -58.594    -265.626     -49.186
  H      -59.423    -265.597     -49.724
  H      -55.440    -265.845     -46.916
  H      -56.277    -265.131     -48.274
  H      -55.560    -266.717     -48.426

 6  7  8  9  10  11  12  13  14  15  26  29  33  34 0
 6-311+G(2d,p)
 ****
 36  38  39  40  41 0
 6-311+G(2d,p)
 ****
 1  2  3  4  5  16  17  18  19  20  21  22  23  24  25 0
 3-21G
 ****
 27  28  30  31  32  35  37  42  43  44  45  46  47 0
 3-21G
 ****
 48  49 0
 3-21G
 ****


