%nproc=1
%NoSave
%Mem=1900MB
#P OB98/GEN NMR

erre ene a

0 1
  C       -4.017      32.590     108.561
  O       -3.974      33.875     109.165
  P       -2.571      34.354     109.786
  C       -3.951      35.843     111.400
  O       -2.912      34.881     111.262
  C       -4.331      36.013     112.865
  O       -4.965      34.814     113.347
  C       -3.156      36.256     113.800
  O       -2.737      37.612     113.786
  C       -3.769      35.887     115.143
  O       -4.529      36.998     115.651
  C       -4.703      34.724     114.770
  N       -3.595      31.371     118.398
  C       -4.185      32.615     118.493
  N       -4.557      33.011     119.730
  N       -4.390      33.402     117.470
  C       -4.005      32.858     116.292
  C       -3.407      31.637     116.069
  C       -3.139      30.798     117.217
  O       -2.561      29.715     117.201
  N       -3.177      31.432     114.734
  C       -3.666      32.505     114.146
  N       -4.151      33.414     115.053
  O       -2.259      35.699     108.977
  O       -1.460      33.368     109.676
  H       -5.152      37.264     114.948
  H       -1.296      35.864     108.966
  H       -3.477      30.799     119.215
  H       -3.687      32.664     113.077
  H       -5.670      34.812     115.279
  H       -3.019      35.639     115.901
  H       -4.545      32.400     120.531
  H       -2.326      35.577     113.576
  H       -5.024      33.904     119.814
  H       -5.057      36.833     112.937
  H       -4.830      35.507     110.841
  H       -3.611      36.794     110.978
  P       -1.289      37.923     114.408
  C       -2.110      40.306     115.039
  O       -1.533      39.091     115.477
  O       -0.524      38.651     113.207
  O       -0.560      36.719     114.897
  H        0.441      38.528     113.298
  H       -2.862      40.135     114.264
  H       -1.326      40.961     114.649
  H       -2.590      40.795     115.890
  H       -5.004      32.402     108.193
  H       -3.759      31.846     109.286
  H       -3.321      32.554     107.750

 3  4  5  6  7  8  9  10  11  12  23  26  30  31  33  0
 6-311+G(2d,p)
 ****
 35  36  37  38 0
 6-311+G(2d,p)
 ****
 1  2  13  14  15  16  17  18  19  20  21  22  24  25  27  28  29 0
 3-21G
 ****
 32  34  39  40  41  42  43  44  45  46  47  48  49 0
 3-21G
 ****


