%nproc=1
%NoSave
%Mem=1900MB
#P OB98/GEN NMR

erre ene a

0 1
  C     -474.989    -493.560    -342.386
  O     -476.387    -493.372    -342.499
  H     -474.686    -493.310    -341.368
  H     -474.466    -492.901    -343.079
  H     -474.727    -494.603    -342.594
  P     -477.056    -493.703    -343.922
  C     -476.006    -491.624    -345.091
  O     -476.073    -493.039    -345.012
  C     -474.660    -491.173    -345.679
  O     -474.492    -491.786    -346.981
  C     -474.546    -489.663    -345.854
  O     -473.246    -489.226    -345.428
  C     -474.725    -489.431    -347.336
  O     -474.094    -488.238    -347.796
  C     -474.177    -490.750    -347.931
  N     -474.736    -491.033    -349.242
  C     -474.297    -490.235    -350.307
  O     -473.491    -489.335    -350.115
  N     -474.827    -490.447    -351.559
  C     -475.762    -491.336    -351.723
  N     -476.264    -491.481    -352.971
  C     -476.295    -492.164    -350.614
  C     -475.733    -491.966    -349.421
  O     -478.339    -492.743    -343.944
  O     -477.377    -495.145    -344.158
  H     -473.922    -488.347    -348.772
  H     -478.966    -492.993    -344.661
  H     -477.090    -492.877    -350.795
  H     -476.065    -492.538    -348.554
  H     -473.079    -490.690    -348.016
  H     -475.799    -489.352    -347.569
  H     -475.296    -489.102    -345.288
  H     -473.859    -491.570    -345.041
  H     -475.887    -490.891    -353.697
  H     -476.119    -491.211    -344.075
  H     -477.020    -492.112    -353.215
  H     -476.820    -491.255    -345.711
  P     -473.074    -488.906    -343.862
  C     -473.854    -486.437    -343.761
  O     -474.167    -487.786    -343.483
  O     -471.684    -488.141    -343.779
  O     -473.107    -490.129    -343.007
  H     -470.978    -488.737    -343.498
  H     -474.668    -485.812    -343.458
  H     -473.686    -486.319    -344.811
  H     -472.971    -486.158    -343.225

 6  7  8  9  10  11  12  13  14  15  16  26  30  31  32  33  35 0
 6-311+G(2d,p)
 ****
 37  38 0
 6-311+G(2d,p)
 ****
 1  2  3  4  5  17  18  19  20  21  22  23  24  25 0
 3-21G
 ****
 27  28  29  34  36  39  40  41  42  43  44  45  46 0
 3-21G
 ****


