%nproc=1
%NoSave
%Mem=1900MB
#P OB98/GEN NMR

erre ene a

0 1
  C     -112.598     154.867     226.956
  O     -113.074     155.874     226.084
  H     -113.215     153.974     226.830
  H     -112.670     155.203     227.994
  H     -111.561     154.618     226.717
  P     -112.284     157.270     226.100
  C     -113.889     159.094     227.026
  O     -112.893     158.121     227.315
  C     -115.241     158.618     227.550
  O     -115.183     158.472     228.988
  C     -116.381     159.589     227.285
  O     -116.856     159.516     225.954
  C     -117.399     159.134     228.318
  O     -118.162     158.018     227.846
  C     -116.514     158.714     229.498
  N     -119.358     161.363     232.808
  C     -119.665     160.359     231.956
  N     -118.844     159.696     231.113
  C     -117.583     160.145     231.231
  C     -117.120     161.155     232.058
  C     -118.073     161.778     232.879
  N     -117.768     162.815     233.729
  N     -115.769     161.357     231.866
  C     -115.418     160.480     230.948
  N     -116.479     159.723     230.538
  O     -112.839     158.014     224.797
  O     -110.797     157.157     226.084
  H     -118.815     157.818     228.545
  H     -112.195     157.923     224.070
  H     -120.707     160.057     231.941
  H     -114.418     160.361     230.547
  H     -116.857     157.782     229.962
  H     -118.097     159.936     228.556
  H     -116.068     160.613     227.526
  H     -115.456     157.632     227.117
  H     -113.952     159.237     225.941
  H     -113.605     160.042     227.494
  H     -118.513     163.261     234.238
  H     -116.836     163.210     233.706
  P     -117.624     160.793     225.364
  C     -120.160     160.342     224.960
  O     -119.141     160.715     225.876
  O     -117.735     160.484     223.798
  O     -116.951     162.096     225.627
  H     -117.650     161.314     223.289
  H     -121.106     160.339     225.460
  H     -119.956     159.363     224.578
  H     -120.186     161.042     224.151

 6  7  8  9  10  11  12  13  14  15  25  28  32  33  34  35 0
 6-311+G(2d,p)
 ****
 36  37  40 0
 6-311+G(2d,p)
 ****
 1  2  3  4  5  16  17  18  19  20  21  22  23  24 0
 3-21G
 ****
 26  27  29  30  31  38  39 41  42  43  44  45  46  47  48 0
 3-21G
 ****


