%nproc=1
%NoSave
%Mem=1900MB
#P OB98/GEN NMR

erre ene a

0 1
  C      207.190     663.943    -544.455
  O      205.917     664.254    -544.988
  H      207.786     663.456    -545.231
  H      207.071     663.251    -543.621
  H      207.707     664.851    -544.123
  P      204.990     665.239    -544.136
  C      203.030     663.554    -543.960
  O      203.459     664.816    -544.427
  C      201.880     663.029    -544.825
  O      200.681     663.795    -544.526
  C      202.135     663.140    -546.342
  O      201.604     661.992    -546.989
  C      201.346     664.378    -546.741
  O      200.966     664.354    -548.117
  C      200.174     664.300    -545.774
  N      196.480     667.341    -547.391
  C      196.783     666.030    -547.736
  N      195.971     665.448    -548.643
  N      197.783     665.354    -547.218
  C      198.467     666.059    -546.285
  C      198.284     667.355    -545.864
  C      197.188     668.100    -546.469
  O      196.897     669.270    -546.221
  N      199.216     667.717    -544.931
  C      199.977     666.636    -544.781
  N      199.553     665.600    -545.589
  O      205.141     666.633    -544.904
  O      205.346     665.366    -542.692
  H      200.573     663.465    -548.301
  H      205.574     667.288    -544.319
  H      195.714     667.816    -547.820
  H      200.828     666.560    -544.130
  H      199.376     663.622    -546.124
  H      201.941     665.277    -546.558
  H      195.157     665.893    -549.052
  H      203.202     663.234    -546.586
  H      196.146     664.480    -548.889
  H      201.669     661.993    -544.538
  H      202.692     663.643    -542.931
  H      203.872     662.846    -543.992
  P      202.656     660.958    -547.633
  C      202.465     661.740    -550.092
  O      202.232     660.700    -549.171
  O      202.314     659.580    -546.903
  O      204.081     661.354    -547.430
  H      203.018     659.349    -546.274
  H      202.139     661.435    -551.064
  H      203.511     661.964    -550.120
  H      201.922     662.611    -549.791

 6  7  8  9  10  11  12  13  14  15  26  29  33  34 0
 6-311+G(2d,p)
 ****
 36  38  39  40  41 0
 6-311+G(2d,p)
 ****
 1  2  3  4  5  16  17  18  19  20  21  22  23  24  25 0
 3-21G
 ****
 27  28  30  31  32  35  37  42  43  44  45  46  47 0
 3-21G
 ****
 48  49 0
 3-21G
 ****


