%nproc=1
%NoSave
%Mem=1900MB
#P OB98/GEN NMR

erre ene a

0 1
  C     -560.692    -877.717     113.825
  O     -560.170    -877.976     115.107
  H     -560.190    -876.841     113.410
  H     -561.766    -877.511     113.877
  H     -560.520    -878.571     113.156
  P     -560.743    -879.221     115.932
  C     -560.971    -877.672     117.985
  O     -560.456    -878.904     117.475
  C     -560.349    -877.382     119.349
  O     -560.545    -878.492     120.247
  C     -558.838    -877.133     119.309
  O     -558.558    -875.796     118.897
  C     -558.472    -877.401     120.756
  O     -558.847    -876.270     121.579
  C     -559.356    -878.615     121.074
  N     -558.582    -883.321     122.805
  C     -559.223    -882.237     123.408
  N     -559.698    -882.442     124.653
  N     -559.379    -881.084     122.830
  C     -558.801    -881.009     121.608
  C     -558.133    -882.005     120.925
  C     -558.003    -883.294     121.546
  O     -557.482    -884.278     121.048
  N     -557.636    -881.530     119.726
  C     -558.039    -880.278     119.679
  N     -558.743    -879.911     120.810
  O     -560.283    -880.580     115.492
  O     -562.327    -879.069     115.808
  H     -558.299    -875.517     121.254
  H     -562.684    -879.563     115.048
  H     -558.481    -884.194     123.312
  H     -557.857    -879.601     118.858
  H     -559.681    -878.630     122.118
  H     -557.396    -877.566     120.893
  H     -559.342    -883.190     125.244
  H     -558.324    -877.867     118.672
  H     -560.117    -881.660     125.136
  H     -560.870    -876.519     119.772
  H     -562.056    -877.789     118.078
  H     -560.768    -876.859     117.301
  P     -557.763    -875.479     117.536
  C     -556.863    -873.611     119.048
  O     -557.172    -874.027     117.728
  O     -558.570    -875.685     116.290
  O     -556.466    -876.405     117.623
  H     -556.609    -877.313     117.254
  H     -556.474    -872.614     119.026
  H     -556.132    -874.270     119.468
  H     -557.750    -873.635     119.646

 6  7  8  9  10  11  12  13  14  15  26  29  33  34 0
 6-311+G(2d,p)
 ****
 36  38  39  40  41 0
 6-311+G(2d,p)
 ****
 1  2  3  4  5  16  17  18  19  20  21  22  23  24  25 0
 3-21G
 ****
 27  28  30  31  32  35  37  42  43  44  45  46  47 0
 3-21G
 ****
 48  49 0
 3-21G
 ****


