%nproc=1
%NoSave
%Mem=1900MB
#P OB98/GEN NMR

erre ene a

0 1
  C       62.051     -48.383      -3.623
  O       61.943     -48.383      -5.031
  H       61.881     -49.399      -3.257
  H       61.297     -47.722      -3.187
  H       63.050     -48.060      -3.318
  P       62.202     -46.985      -5.774
  C       59.710     -46.583      -6.398
  O       61.032     -46.830      -6.861
  C       58.768     -46.423      -7.588
  O       57.411     -46.282      -7.112
  C       59.036     -45.185      -8.436
  O       60.123     -45.375      -9.323
  C       57.697     -45.017      -9.144
  O       57.603     -45.858     -10.300
  C       56.696     -45.480      -8.078
  N       52.280     -42.995      -7.540
  C       52.609     -44.116      -8.218
  N       53.811     -44.726      -8.295
  C       54.724     -44.062      -7.566
  C       54.538     -42.905      -6.831
  C       53.243     -42.363      -6.829
  N       52.916     -41.202      -6.169
  N       55.726     -42.500      -6.257
  C       56.611     -43.402      -6.630
  N       56.049     -44.366      -7.417
  O       63.504     -47.286      -6.658
  O       62.395     -45.811      -4.874
  H       56.732     -45.681     -10.704
  H       64.300     -47.002      -6.173
  H       51.801     -44.582      -8.775
  H       57.662     -43.394      -6.367
  H       55.905     -46.111      -8.499
  H       57.552     -43.989      -9.478
  H       59.207     -44.314      -7.792
  H       58.821     -47.333      -8.200
  H       59.701     -45.662      -5.806
  H       59.394     -47.418      -5.765
  H       51.971     -40.858      -6.232
  H       53.650     -40.667      -5.725
  P       61.516     -44.658      -8.989
  C       60.833     -42.443     -10.166
  O       61.754     -43.519     -10.093
  O       62.600     -45.776      -9.356
  O       61.653     -44.189      -7.580
  H       62.912     -46.226      -8.549
  H       61.128     -41.773     -10.947
  H       60.821     -41.920      -9.233
  H       59.855     -42.824     -10.374

 6  7  8  9  10  11  12  13  14  15  25  28  32  33  34  35 0
 6-311+G(2d,p)
 ****
 36  37  40 0
 6-311+G(2d,p)
 ****
 1  2  3  4  5  16  17  18  19  20  21  22  23  24 0
 3-21G
 ****
 26  27  29  30  31  38  39 41  42  43  44  45  46  47  48 0
 3-21G
 ****


