%nproc=1
%NoSave
%Mem=1900MB
#P OB98/GEN NMR

erre ene a

0 1
  C      442.017     446.963     200.209
  O      441.045     446.352     199.349
  P      441.422     446.166     197.803
  C      439.908     448.077     196.885
  O      441.227     447.574     197.065
  C      439.915     449.308     195.976
  O      440.377     450.488     196.649
  C      440.801     449.146     194.750
  O      440.155     448.418     193.714
  C      440.999     450.605     194.347
  O      439.842     451.063     193.599
  C      441.075     451.322     195.688
  N      445.272     454.227     195.194
  C      444.075     454.258     194.564
  N      443.009     453.430     194.733
  C      443.265     452.523     195.693
  C      444.437     452.382     196.419
  C      445.472     453.286     196.162
  N      446.693     453.268     196.811
  N      444.343     451.331     197.320
  C      443.120     450.851     197.136
  N      442.429     451.538     196.160
  O      440.219     445.276     197.227
  O      442.749     445.503     197.578
  H      440.135     451.853     193.084
  H      440.555     444.669     196.535
  H      443.955     455.034     193.816
  H      442.679     450.022     197.675
  H      440.570     452.301     195.679
  H      441.868     450.749     193.675
  H      441.777     448.700     195.032
  H      438.863     449.490     195.646
  H      439.460     448.335     197.849
  H      447.371     453.978     196.579
  H      446.835     452.584     197.540
  H      439.258     447.282     196.462
  P      440.765     446.988     193.330
  C      442.889     447.976     192.215
  O      442.365     447.182     193.241
  O      440.314     446.797     191.819
  O      440.296     445.871     194.198
  H      440.189     445.848     191.610
  H      443.915     448.263     192.470
  H      442.309     448.901     192.059
  H      442.901     447.414     191.277
  H      441.627     447.020     201.204
  H      442.237     447.949     199.855
  H      442.912     446.376     200.209

 3  4  5  6  7  8  9  10  11  12  22  25  29  30  31  32 0
 6-311+G(2d,p)
 ****
 33  36  37 0
 6-311+G(2d,p)
 ****
 1  2  13  14  15  16  17  18  19  20  21  23  24  26 0
 3-21G
 ****
 27  28  34  35  38  39  40  41  42  43  44  45  46  47  48 0
 3-21G
 ****


