%nproc=1
%NoSave
%Mem=1900MB
#P OB98/GEN NMR

erre ene a

0 1
  C      135.367    -146.104      13.155
  O      135.150    -147.462      12.831
  H      136.369    -146.000      13.577
  H      134.637    -145.779      13.900
  H      135.293    -145.482      12.261
  P      133.762    -147.823      12.110
  C      134.714    -148.363       9.758
  O      133.954    -147.466      10.555
  C      133.874    -149.570       9.350
  O      132.741    -149.106       8.553
  C      134.628    -150.611       8.509
  O      134.130    -151.909       8.860
  C      134.174    -150.299       7.093
  O      134.339    -151.402       6.206
  C      132.721    -149.907       7.356
  N      128.368    -148.270       5.436
  C      128.635    -148.931       6.618
  N      127.578    -149.197       7.418
  N      129.832    -149.296       6.990
  C      130.799    -148.935       6.109
  C      130.667    -148.286       4.906
  C      129.330    -147.911       4.495
  O      129.029    -147.342       3.450
  N      131.886    -148.130       4.293
  C      132.749    -148.680       5.127
  N      132.137    -149.183       6.243
  O      132.783    -146.675      12.644
  O      133.230    -149.189      12.391
  H      133.805    -152.147       6.550
  H      132.299    -146.984      13.432
  H      127.425    -148.022       5.191
  H      133.819    -148.744       4.970
  H      132.080    -150.779       7.537
  H      134.742    -149.449       6.692
  H      126.635    -148.905       7.221
  H      135.716    -150.586       8.628
  H      127.759    -149.643       8.312
  H      133.456    -150.027      10.254
  H      135.577    -148.707      10.341
  H      135.073    -147.838       8.868
  P      135.118    -152.913       9.626
  C      135.016    -151.765      11.957
  O      135.807    -152.109      10.829
  O      136.323    -153.089       8.583
  O      134.504    -154.223       9.985
  H      136.746    -153.956       8.710
  H      135.617    -151.235      12.666
  H      134.633    -152.656      12.409
  H      134.202    -151.144      11.646

 6  7  8  9  10  11  12  13  14  15  26  29  33  34 0
 6-311+G(2d,p)
 ****
 36  38  39  40  41 0
 6-311+G(2d,p)
 ****
 1  2  3  4  5  16  17  18  19  20  21  22  23  24  25 0
 3-21G
 ****
 27  28  30  31  32  35  37  42  43  44  45  46  47 0
 3-21G
 ****
 48  49 0
 3-21G
 ****


