%nproc=1
%NoSave
%Mem=1900MB
#P OB98/GEN NMR

erre ene a

0 1
  C      115.163     185.511     115.606
  O      115.121     185.803     116.990
  H      116.174     185.187     115.348
  H      114.921     186.405     115.026
  H      114.462     184.708     115.370
  P      113.705     186.277     117.577
  C      111.418     185.073     117.736
  O      112.674     185.157     117.074
  C      110.423     184.280     116.895
  O      109.909     185.090     115.823
  C      111.007     183.040     116.232
  O      111.070     181.959     117.148
  C      109.982     182.792     115.137
  O      108.827     182.133     115.692
  C      109.608     184.220     114.699
  N      109.735     184.290     109.569
  C      108.999     183.567     110.438
  N      109.048     183.569     111.787
  C      109.977     184.432     112.229
  C      110.803     185.238     111.461
  C      110.650     185.153     110.067
  N      111.397     185.902     109.183
  N      111.633     185.992     112.263
  C      111.276     185.686     113.494
  N      110.303     184.720     113.527
  O      113.332     187.692     117.302
  O      113.880     185.909     119.127
  H      108.136     182.122     115.004
  H      114.360     185.068     119.226
  H      108.270     182.897     109.991
  H      111.676     186.145     114.389
  H      108.537     184.313     114.488
  H      110.367     182.147     114.345
  H      111.978     183.251     115.773
  H      109.575     184.017     117.539
  H      111.025     186.075     117.935
  H      111.345     185.656     108.207
  H      112.161     186.449     109.552
  H      111.586     184.572     118.695
  P      112.034     180.708     116.872
  C      114.586     180.449     116.698
  O      113.475     181.315     116.503
  O      111.512     179.714     115.894
  O      112.273     180.059     118.311
  H      112.296     179.085     118.244
  H      115.487     180.956     116.421
  H      114.468     179.575     116.091
  H      114.639     180.164     117.728

 6  7  8  9  10  11  12  13  14  15  25  28  32  33  34  35 0
 6-311+G(2d,p)
 ****
 36  39  40 0
 6-311+G(2d,p)
 ****
 1  2  3  4  5  16  17  18  19  20  21  22  23  24 0
 3-21G
 ****
 26  27  29  30  31  37  38  41  42  43  44  45  46  47 0
 3-21G
 ****
 48 0
 3-21G
 ****


