%nproc=1
%NoSave
%Mem=1900MB
#P OB98/GEN NMR

erre ene a

0 1
  C      539.399    -229.738      44.117
  O      538.919    -230.509      45.201
  H      540.486    -229.666      44.191
  H      538.978    -228.731      44.155
  H      539.144    -230.208      43.160
  P      537.375    -230.927      45.233
  C      538.004    -233.206      46.275
  O      537.215    -232.029      46.385
  C      538.515    -233.645      47.652
  O      539.414    -232.619      48.169
  C      537.397    -233.851      48.706
  O      537.856    -234.864      49.604
  C      537.381    -232.488      49.368
  O      536.634    -232.469      50.555
  C      538.898    -232.234      49.469
  N      539.284    -230.865      49.799
  C      539.892    -230.646      51.026
  O      540.132    -231.525      51.856
  N      540.230    -229.345      51.301
  C      540.040    -228.281      50.476
  O      540.396    -227.137      50.759
  C      539.382    -228.573      49.185
  C      539.046    -229.832      48.910
  O      536.774    -231.296      43.916
  O      536.654    -229.642      45.867
  H      536.230    -229.122      45.162
  H      535.718    -232.767      50.364
  H      540.677    -229.170      52.188
  H      539.213    -227.750      48.511
  H      538.572    -230.088      47.971
  H      539.339    -232.920      50.198
  H      536.909    -231.754      48.699
  H      536.448    -234.153      48.260
  H      539.113    -234.561      47.531
  H      538.862    -232.980      45.623
  H      537.414    -234.002      45.821
  P      537.535    -236.424      49.418
  C      539.285    -236.890      51.268
  O      537.993    -237.196      50.750
  O      538.095    -237.015      48.161
  O      535.933    -236.532      49.445
  H      535.655    -237.325      48.945
  H      539.462    -237.470      52.150
  H      539.335    -235.849      51.510
  H      540.028    -237.122      50.534

 6  7  8  9  10  11  12  13  14  15  16  27  31  32  33  34  35 0
 6-311+G(2d,p)
 ****
 36  37 0
 6-311+G(2d,p)
 ****
 1  2  3  4  5  17  18  19  20  21  22  23  24  25 0
 3-21G
 ****
 26  28  29  30  38  39  40  41  42  43  44  45 0
 3-21G
 ****


