%nproc=1
%NoSave
%Mem=1900MB
#P OB98/GEN NMR

erre ene a

0 1
  C     1260.857    -184.432     586.087
  O     1260.675    -185.835     586.182
  P     1261.703    -186.760     585.362
  C     1262.656    -186.628     582.916
  O     1261.690    -186.207     583.863
  C     1262.139    -186.477     581.500
  O     1261.542    -185.153     581.319
  C     1263.178    -186.601     580.402
  O     1263.561    -187.937     580.172
  C     1262.487    -185.915     579.232
  O     1261.548    -186.832     578.618
  C     1261.704    -184.788     579.957
  N     1262.391    -183.479     579.826
  C     1261.817    -182.576     578.947
  O     1260.839    -182.805     578.263
  N     1262.459    -181.361     578.834
  C     1263.645    -181.019     579.478
  O     1264.195    -179.938     579.308
  C     1264.202    -182.035     580.367
  C     1263.556    -183.200     580.517
  O     1260.872    -188.137     585.305
  O     1263.041    -186.886     586.009
  H     1259.888    -187.968     585.346
  H     1262.095    -187.496     578.156
  H     1262.069    -180.679     578.224
  H     1265.113    -181.802     580.882
  H     1263.961    -183.969     581.152
  H     1260.700    -184.702     579.517
  H     1263.189    -185.576     578.459
  H     1264.073    -186.014     580.693
  H     1261.338    -187.232     581.347
  H     1262.926    -187.679     583.117
  H     1263.578    -186.025     583.054
  P     1265.106    -188.212     579.789
  C     1266.574    -187.286     577.827
  O     1265.289    -187.680     578.293
  O     1265.137    -189.802     579.653
  O     1266.072    -187.664     580.785
  H     1264.340    -190.157     579.181
  H     1266.570    -187.290     576.742
  H     1267.352    -187.960     578.191
  H     1266.784    -186.268     578.171
  H     1260.113    -183.935     586.675
  H     1260.765    -184.129     585.065
  H     1261.830    -184.173     586.450

 3  4  5  6  7  8  9  10  11  12  13  24  28  29  30  31  32 0
 6-311+G(2d,p)
 ****
 33  34 0
 6-311+G(2d,p)
 ****
 1  2  14  15  16  17  18  19  20  21  22  23  25  26  27 0
 3-21G
 ****
 35  36  37  38  39  40  41  42  43  44  45 0
 3-21G
 ****


