%nproc=1
%NoSave
%Mem=1900MB
#P OB98/GEN NMR

erre ene a

0 1
  C       54.736      48.526     940.566
  O       54.070      49.491     939.752
  P       52.930      48.968     938.766
  C       54.582      48.169     936.926
  O       53.600      47.806     937.874
  C       54.331      47.462     935.601
  O       54.605      46.042     935.710
  C       52.887      47.547     935.106
  O       52.609      48.771     934.452
  C       52.850      46.393     934.106
  O       53.442      46.804     932.863
  C       53.735      45.342     934.803
  N       52.235      40.492     934.907
  C       53.191      41.122     934.120
  N       53.793      40.341     933.187
  N       53.539      42.369     934.230
  C       52.841      43.023     935.206
  C       51.881      42.534     936.053
  C       51.510      41.134     935.905
  O       50.630      40.548     936.536
  N       51.417      43.492     936.910
  C       52.095      44.577     936.589
  N       52.952      44.347     935.519
  O       52.753      50.171     937.725
  O       51.635      48.609     939.429
  H       53.384      46.042     932.251
  H       51.906      50.085     937.241
  H       52.005      39.530     934.778
  H       52.009      45.533     937.074
  H       54.364      44.805     934.079
  H       51.842      46.054     933.880
  H       53.536      39.379     933.005
  H       52.171      47.343     935.918
  H       54.457      40.774     932.547
  H       55.018      47.874     934.844
  H       55.572      47.898     937.307
  H       54.567      49.255     936.777
  P       51.074      49.265     934.457
  C       50.617      48.497     932.018
  O       50.336      48.333     933.388
  O       51.151      50.692     933.732
  O       50.465      49.345     935.818
  H       50.427      51.252     934.026
  H       50.248      47.636     931.463
  H       51.699      48.581     931.844
  H       50.122      49.403     931.637
  H       55.470      49.016     941.172
  H       55.215      47.802     939.941
  H       54.022      48.037     941.196

 3  4  5  6  7  8  9  10  11  12  23  26  30  31 0
 6-311+G(2d,p)
 ****
 33  35  36  37  38 0
 6-311+G(2d,p)
 ****
 1  2  13  14  15  16  17  18  19  20  21  22  24  25 0
 3-21G
 ****
 27  28  29  32  34  39  40  41  42  43  44  45  46  47  48  49 0
 3-21G
 ****


