%nproc=1
%NoSave
%Mem=1900MB
#P OB98/GEN NMR

erre ene a

0 1
  C     -410.191     256.020     -50.266
  O     -410.114     255.642     -51.625
  H     -411.080     256.644     -50.130
  H     -409.310     256.593     -49.975
  H     -410.288     255.134     -49.630
  P     -408.832     254.810     -52.113
  C     -410.427     254.203     -54.053
  O     -409.085     254.434     -53.649
  C     -410.550     252.860     -54.794
  O     -409.795     252.940     -56.039
  C     -410.000     251.661     -54.001
  O     -410.750     250.509     -54.397
  C     -408.580     251.587     -54.526
  O     -407.972     250.362     -54.187
  C     -408.814     251.876     -56.011
  N     -407.594     252.243     -56.710
  C     -406.704     251.198     -56.989
  O     -406.962     250.053     -56.624
  N     -405.526     251.489     -57.628
  C     -405.233     252.723     -57.910
  N     -404.043     252.940     -58.537
  C     -406.122     253.857     -57.588
  C     -407.274     253.548     -56.994
  O     -408.433     253.663     -51.244
  O     -407.671     255.908     -52.196
  H     -407.683     250.365     -53.245
  H     -407.063     255.806     -51.442
  H     -405.820     254.864     -57.831
  H     -407.991     254.317     -56.719
  H     -409.260     251.007     -56.518
  H     -407.961     252.376     -54.078
  H     -410.059     251.803     -52.916
  H     -411.603     252.702     -55.069
  H     -403.466     252.135     -58.731
  H     -410.719     255.021     -54.718
  H     -403.708     253.856     -58.790
  H     -411.091     254.200     -53.181
  P     -411.997     249.948     -53.557
  C     -412.984     248.994     -55.742
  O     -412.692     248.756     -54.373
  O     -412.948     251.007     -53.104
  O     -411.342     249.203     -52.295
  H     -411.952     249.273     -51.537
  H     -413.442     248.125     -56.165
  H     -412.078     249.211     -56.268
  H     -413.652     249.826     -55.825

 6  7  8  9  10  11  12  13  14  15  16  26  30  31  32  33  35 0
 6-311+G(2d,p)
 ****
 37  38 0
 6-311+G(2d,p)
 ****
 1  2  3  4  5  17  18  19  20  21  22  23  24  25 0
 3-21G
 ****
 27  28  29  34  36  39  40  41  42  43  44  45  46 0
 3-21G
 ****


