%nproc=1
%NoSave
%Mem=1900MB
#P OB98/GEN NMR

erre ene a

0 1
  C      -43.934     -52.563     190.405
  O      -45.252     -52.118     190.696
  P      -46.504     -53.110     190.525
  C      -47.329     -55.248     191.691
  O      -46.233     -54.359     191.495
  C      -46.848     -56.696     191.740
  O      -46.603     -57.153     190.387
  C      -45.553     -56.881     192.527
  O      -45.601     -58.136     193.214
  C      -44.473     -56.971     191.459
  O      -43.334     -57.709     191.932
  C      -45.242     -57.621     190.307
  N      -42.444     -59.198     186.297
  C      -42.817     -59.825     187.432
  N      -43.543     -59.339     188.464
  C      -43.931     -58.075     188.219
  C      -43.626     -57.306     187.107
  C      -42.840     -57.914     186.109
  N      -42.467     -57.276     184.950
  N      -44.173     -56.040     187.220
  C      -44.813     -56.059     188.371
  N      -44.703     -57.271     189.008
  O      -46.832     -53.475     189.117
  O      -47.716     -52.352     191.237
  H      -42.650     -57.663     191.233
  H      -48.545     -52.487     190.740
  H      -42.500     -60.860     187.527
  H      -45.356     -55.225     188.791
  H      -45.251     -58.715     190.393
  H      -44.132     -55.959     191.197
  H      -45.367     -56.067     193.237
  H      -47.647     -57.316     192.157
  H      -48.024     -55.127     190.854
  H      -42.007     -57.829     184.238
  H      -42.905     -56.387     184.730
  H      -47.850     -54.983     192.617
  P      -44.776     -58.214     194.598
  C      -44.935     -56.839     196.806
  O      -45.288     -56.955     195.447
  O      -43.306     -58.331     194.367
  O      -45.455     -59.488     195.290
  H      -46.365     -59.639     194.959
  H      -45.408     -55.945     197.218
  H      -43.850     -56.741     196.909
  H      -45.281     -57.715     197.367
  H      -43.242     -51.766     190.578
  H      -43.878     -52.867     189.381
  H      -43.689     -53.391     191.037

 3  4  5  6  7  8  9  10  11  12  22  25  29  30  31  32 0
 6-311+G(2d,p)
 ****
 33  36  37 0
 6-311+G(2d,p)
 ****
 1  2  13  14  15  16  17  18  19  20  21  23  24  26 0
 3-21G
 ****
 27  28  34  35  38  39  40  41  42  43  44  45  46  47  48 0
 3-21G
 ****


