%nproc=1
%NoSave
%Mem=1900MB
#P OB98/GEN NMR

erre ene a

0 1
  C       24.059     705.840     423.754
  O       25.037     706.726     423.188
  P       24.739     707.262     421.694
  C       25.519     709.744     421.858
  O       25.787     708.426     421.385
  C       26.627     710.703     421.451
  O       27.879     710.340     422.068
  C       26.923     710.723     419.948
  O       25.978     711.524     419.247
  C       28.296     711.362     419.931
  O       28.159     712.811     420.010
  C       28.954     710.822     421.229
  N       33.533     709.548     419.508
  C       32.946     710.781     419.601
  N       33.717     711.852     419.219
  N       31.739     710.987     420.059
  C       31.108     709.838     420.430
  C       31.602     708.543     420.369
  C       32.926     708.345     419.859
  O       33.490     707.268     419.710
  N       30.681     707.649     420.858
  C       29.650     708.382     421.225
  N       29.860     709.732     420.976
  O       23.351     708.062     421.866
  O       24.635     706.171     420.668
  H       28.981     713.158     420.427
  H       22.854     708.068     421.032
  H       34.486     709.459     419.159
  H       28.746     708.017     421.677
  H       29.477     711.616     421.763
  H       28.861     711.152     419.022
  H       34.666     711.779     418.939
  H       26.986     709.709     419.559
  H       33.295     712.769     419.331
  H       26.345     711.709     421.793
  H       25.415     709.735     422.943
  H       24.544     710.055     421.453
  P       24.938     710.746     418.283
  C       23.239     712.708     417.989
  O       24.250     711.900     417.416
  O       23.791     710.302     419.301
  O       25.510     709.602     417.547
  H       23.347     709.503     418.987
  H       23.524     713.003     419.018
  H       22.301     712.142     418.014
  H       23.109     713.613     417.386
  H       24.364     705.555     424.739
  H       23.971     704.967     423.141
  H       23.113     706.338     423.804

 3  4  5  6  7  8  9  10  11  12  23  26  30  31  33  0
 6-311+G(2d,p)
 ****
 35  36  37  38 0
 6-311+G(2d,p)
 ****
 1  2  13  14  15  16  17  18  19  20  21  22  24  25  27  28  29 0
 3-21G
 ****
 32  34  39  40  41  42  43  44  45  46  47  48  49 0
 3-21G
 ****


