%nproc=1
%NoSave
%Mem=1900MB
#P OB98/GEN NMR

erre ene a

0 1
  C       30.506      -7.295      21.679
  O       30.438      -6.519      20.495
  P       31.566      -5.394      20.280
  C       30.130      -3.394      19.454
  O       31.033      -4.437      19.107
  C       29.495      -2.772      18.209
  O       28.489      -1.816      18.623
  C       30.487      -2.050      17.296
  O       30.083      -2.276      15.945
  C       30.278      -0.586      17.634
  O       30.670       0.265      16.559
  C       28.777      -0.567      17.963
  N       28.409       0.574      18.795
  C       27.798       1.654      18.152
  O       27.665       1.647      16.928
  N       27.402       2.734      18.901
  C       27.690       2.777      20.164
  N       27.275       3.866      20.865
  C       28.444       1.714      20.857
  C       28.749       0.644      20.125
  O       32.752      -6.207      19.582
  O       32.006      -4.708      21.531
  H       30.124       0.035      15.775
  H       33.621      -5.841      19.836
  H       28.690       1.816      21.904
  H       29.280      -0.195      20.554
  H       28.180      -0.532      17.042
  H       30.868      -0.320      18.519
  H       31.518      -2.389      17.436
  H       28.979      -3.566      17.655
  H       26.774       4.589      20.364
  H       30.678      -2.611      19.985
  H       27.455       3.987      21.852
  H       29.361      -3.787      20.125
  P       31.045      -3.165      15.020
  C       32.553      -1.118      14.664
  O       31.767      -2.117      14.045
  O       29.987      -3.850      14.027
  O       31.911      -4.188      15.675
  H       30.447      -4.478      13.441
  H       33.090      -0.565      13.889
  H       33.280      -1.569      15.344
  H       31.909      -0.422      15.210
  H       29.700      -7.999      21.691
  H       30.431      -6.653      22.531
  H       31.438      -7.820      21.709

 3  4  5  6  7  8  9  10  11  12  13  21  23  27  28  29  30  32 0
 6-311+G(2d,p)
 ****
 34  35 0
 6-311+G(2d,p)
 ****
 1  2  14  15  16  17  18  19  20  22  24  25  26 0
 3-21G
 ****
 31  33  36  37  38  39  40  41  42  43  44  45  46 0
 3-21G
 ****


