%nproc=1
%NoSave
%Mem=1900MB
#P OB98/GEN NMR

erre ene a

0 1
  C     -337.095    -207.450    -562.130
  O     -337.753    -208.618    -562.619
  P     -339.230    -208.462    -563.222
  C     -339.993    -210.824    -562.502
  O     -339.794    -209.931    -563.590
  C     -340.120    -212.272    -563.015
  O     -338.781    -212.796    -563.250
  C     -340.777    -213.252    -562.032
  O     -342.198    -213.403    -562.082
  C     -340.188    -214.577    -562.491
  O     -340.931    -215.090    -563.609
  C     -338.776    -214.206    -562.947
  N     -334.147    -216.274    -562.164
  C     -334.900    -216.121    -563.279
  N     -336.122    -215.564    -563.404
  C     -336.561    -215.114    -562.216
  C     -335.905    -215.189    -560.996
  C     -334.648    -215.807    -560.990
  N     -333.887    -215.962    -559.851
  N     -336.680    -214.622    -559.995
  C     -337.784    -214.237    -560.605
  N     -337.754    -214.490    -561.947
  O     -339.397    -207.429    -564.284
  O     -340.097    -208.089    -561.921
  H     -340.526    -215.953    -563.836
  H     -340.783    -207.440    -562.176
  H     -334.457    -216.514    -564.197
  H     -338.622    -213.767    -560.113
  H     -338.471    -214.733    -563.861
  H     -340.225    -215.350    -561.710
  H     -340.469    -213.038    -561.000
  H     -340.655    -212.276    -563.966
  H     -340.908    -210.547    -561.969
  H     -333.012    -216.453    -559.930
  H     -334.266    -215.673    -558.962
  H     -339.167    -210.694    -561.805
  P     -343.136    -212.839    -560.913
  C     -344.311    -215.161    -560.713
  O     -344.438    -213.783    -560.911
  O     -343.421    -211.383    -560.977
  O     -342.362    -213.310    -559.589
  H     -342.353    -214.267    -559.451
  H     -345.307    -215.587    -560.534
  H     -343.681    -215.385    -559.841
  H     -343.891    -215.629    -561.610
  H     -336.125    -207.714    -561.763
  H     -337.672    -207.021    -561.337
  H     -336.995    -206.739    -562.923

 3  4  5  6  7  8  9  10  11  12  22  25  29  30  31  32 0
 6-311+G(2d,p)
 ****
 33  36  37 0
 6-311+G(2d,p)
 ****
 1  2  13  14  15  16  17  18  19  20  21  23  24  26 0
 3-21G
 ****
 27  28  34  35  38  39  40  41  42  43  44  45  46  47  48 0
 3-21G
 ****


