%nproc=1
%NoSave
%Mem=1900MB
#P OB98/GEN NMR

erre ene a

0 1
  C      366.027    -278.501      91.909
  O      365.641    -278.607      93.270
  P      366.334    -279.667      94.247
  C      366.599    -277.806      96.080
  O      366.224    -279.124      95.741
  C      365.691    -277.309      97.217
  O      364.398    -276.940      96.695
  C      365.483    -278.381      98.282
  O      366.412    -278.218      99.342
  C      364.041    -278.155      98.700
  O      363.950    -277.079      99.644
  C      363.388    -277.749      97.353
  N      362.977    -278.824      96.426
  C      362.448    -278.488      95.182
  O      362.321    -277.334      94.776
  N      362.034    -279.546      94.411
  C      362.146    -280.871      94.741
  O      361.562    -281.779      94.161
  C      362.953    -281.157      95.929
  C      363.307    -280.138      96.716
  O      367.891    -279.496      93.903
  O      365.878    -281.079      94.091
  H      364.580    -277.267     100.365
  H      368.186    -280.196      93.288
  H      361.521    -279.308      93.564
  H      363.190    -282.185      96.157
  H      363.875    -280.329      97.625
  H      362.509    -277.116      97.525
  H      363.642    -279.030      99.199
  H      365.566    -279.378      97.836
  H      366.140    -276.409      97.661
  H      366.511    -277.155      95.210
  H      367.647    -277.788      96.404
  P      367.020    -279.511     100.071
  C      369.207    -278.544     101.000
  O      367.879    -278.946     101.297
  O      367.730    -280.473      99.179
  O      365.736    -280.176     100.761
  H      365.399    -280.902     100.193
  H      369.615    -278.014     101.866
  H      369.223    -277.879     100.132
  H      369.814    -279.428     100.794
  H      365.447    -277.739      91.432
  H      365.860    -279.436      91.417
  H      367.065    -278.248      91.851

 3  4  5  6  7  8  9  10  11  12  13  23  28  29  30  31  32 0
 6-311+G(2d,p)
 ****
 33  34 0
 6-311+G(2d,p)
 ****
 1  2  14  15  16  17  18  19  20  21  22  24  25  26  27 0
 3-21G
 ****
 35  36  37  38  39  40  41  42  43  44  45 0
 3-21G
 ****


