%nproc=1
%NoSave
%Mem=1900MB
#P OB98/GEN NMR

erre ene a

0 1
  C      471.152     219.603    -356.648
  O      469.772     219.750    -356.368
  P      469.264     220.029    -354.877
  C      469.146     218.748    -352.662
  O      469.688     218.768    -353.977
  C      469.962     217.847    -351.737
  O      469.620     216.460    -352.005
  C      471.487     217.977    -351.898
  O      472.055     217.772    -350.600
  C      471.831     216.802    -352.795
  O      473.201     216.424    -352.717
  C      470.853     215.758    -352.266
  N      472.509     211.232    -353.977
  C      473.007     212.076    -353.048
  N      472.518     213.279    -352.668
  C      471.404     213.578    -353.350
  C      470.793     212.827    -354.345
  C      471.386     211.586    -354.647
  N      470.875     210.696    -355.562
  N      469.697     213.502    -354.849
  C      469.644     214.625    -354.169
  N      470.618     214.686    -353.208
  O      467.832     220.428    -354.754
  O      470.232     221.192    -354.350
  H      473.361     215.717    -353.372
  H      469.748     222.039    -354.325
  H      473.905     211.749    -352.542
  H      468.932     215.427    -354.330
  H      471.197     215.311    -351.324
  H      471.610     217.056    -353.839
  H      471.810     218.934    -352.316
  H      469.668     218.058    -350.702
  H      468.123     218.367    -352.726
  H      471.301     209.788    -355.604
  H      469.914     210.813    -355.875
  H      469.111     219.767    -352.260
  P      473.566     218.236    -350.308
  C      475.803     218.087    -351.541
  O      474.456     217.650    -351.502
  O      474.065     217.946    -348.934
  O      473.534     219.809    -350.611
  H      474.318     220.230    -350.205
  H      475.850     219.080    -351.999
  H      476.388     217.387    -352.144
  H      476.232     218.135    -350.536
  H      471.287     219.424    -357.694
  H      471.543     218.777    -356.091
  H      471.670     220.497    -356.370

 3  4  5  6  7  8  9  10  11  12  22  25  29  30  31  32 0
 6-311+G(2d,p)
 ****
 33  36  37 0
 6-311+G(2d,p)
 ****
 1  2  13  14  15  16  17  18  19  20  21  23  24  26 0
 3-21G
 ****
 27  28  34  35  38  39  40  41  42  43  44  45  46  47  48 0
 3-21G
 ****


