%nproc=1
%NoSave
%Mem=1900MB
#P OB98/GEN NMR

erre ene a

0 1
  C     -418.642    -415.914     180.663
  O     -418.228    -416.901     179.734
  P     -416.644    -417.131     179.566
  C     -416.527    -415.296     177.708
  O     -416.061    -415.757     178.982
  C     -415.394    -414.606     176.950
  O     -414.905    -413.484     177.711
  C     -414.190    -415.491     176.705
  O     -414.434    -416.390     175.630
  C     -413.112    -414.452     176.404
  O     -413.116    -414.090     175.010
  C     -413.535    -413.259     177.286
  N     -412.652    -413.056     178.437
  C     -412.141    -411.770     178.584
  O     -412.430    -410.883     177.760
  N     -411.281    -411.521     179.622
  C     -410.965    -412.471     180.439
  N     -410.112    -412.174     181.471
  C     -411.476    -413.855     180.308
  C     -412.302    -414.082     179.285
  O     -416.562    -418.131     178.314
  O     -415.957    -417.673     180.773
  H     -414.027    -413.791     174.817
  H     -415.746    -418.668     178.354
  H     -411.175    -414.618     181.020
  H     -412.726    -415.066     179.118
  H     -413.548    -412.326     176.702
  H     -412.108    -414.822     176.638
  H     -413.916    -416.052     177.605
  H     -415.806    -414.237     176.002
  H     -409.779    -411.219     181.532
  H     -417.349    -414.589     177.866
  H     -409.838    -412.840     182.171
  H     -416.908    -416.151     177.144
  P     -413.563    -417.733     175.565
  C     -412.874    -417.326     173.123
  O     -412.429    -417.433     174.465
  O     -414.546    -418.730     174.786
  O     -413.089    -418.304     176.864
  H     -414.154    -419.629     174.773
  H     -412.041    -416.973     172.512
  H     -413.695    -416.598     173.048
  H     -413.203    -418.303     172.760
  H     -419.711    -415.863     180.677
  H     -418.243    -414.964     180.375
  H     -418.285    -416.170     181.638

 3  4  5  6  7  8  9  10  11  12  13  21  23  27  28  29  30  32 0
 6-311+G(2d,p)
 ****
 34  35 0
 6-311+G(2d,p)
 ****
 1  2  14  15  16  17  18  19  20  22  24  25  26 0
 3-21G
 ****
 31  33  36  37  38  39  40  41  42  43  44  45  46 0
 3-21G
 ****


