%nproc=1
%NoSave
%Mem=1900MB
#P OB98/GEN NMR

erre ene a

0 1
  C      409.771    -680.373    -822.243
  O      410.240    -680.497    -823.568
  H      410.115    -681.236    -821.667
  H      408.675    -680.347    -822.219
  H      410.176    -679.464    -821.783
  P      409.810    -679.338    -824.591
  C      407.896    -680.840    -825.444
  O      409.067    -680.116    -825.789
  C      407.021    -681.068    -826.675
  O      406.375    -679.810    -827.022
  C      407.790    -681.553    -827.902
  O      406.991    -682.495    -828.615
  C      407.965    -680.292    -828.732
  O      408.124    -680.576    -830.134
  C      406.683    -679.522    -828.398
  N      406.812    -675.821    -831.914
  C      406.494    -677.124    -831.996
  N      406.476    -678.045    -830.994
  C      406.780    -677.469    -829.815
  C      407.118    -676.158    -829.574
  C      407.147    -675.307    -830.694
  N      407.485    -673.979    -830.628
  N      407.407    -675.956    -828.230
  C      407.231    -677.149    -827.675
  N      406.849    -678.089    -828.588
  O      410.901    -678.411    -825.013
  O      408.589    -678.654    -823.813
  H      408.881    -681.165    -830.243
  H      407.988    -679.324    -823.423
  H      406.239    -677.495    -832.981
  H      407.360    -677.366    -826.619
  H      405.819    -679.833    -829.008
  H      408.847    -679.731    -828.389
  H      408.753    -682.000    -827.639
  H      406.208    -681.763    -826.412
  H      407.321    -680.310    -824.670
  H      407.471    -673.431    -831.482
  H      407.718    -673.560    -829.731
  H      408.210    -681.810    -825.026
  P      406.709    -683.930    -827.943
  C      408.665    -685.336    -828.880
  O      407.252    -685.070    -828.919
  O      405.329    -684.129    -827.407
  O      407.788    -683.954    -826.748
  H      407.386    -684.406    -825.964
  H      408.901    -686.115    -829.575
  H      408.943    -685.642    -827.893
  H      409.202    -684.449    -829.143

 6  7  8  9  10  11  12  13  14  15  25  28  32  33  34  35 0
 6-311+G(2d,p)
 ****
 36  39  40 0
 6-311+G(2d,p)
 ****
 1  2  3  4  5  16  17  18  19  20  21  22  23  24 0
 3-21G
 ****
 26  27  29  30  31  37  38  41  42  43  44  45  46  47 0
 3-21G
 ****
 48 0
 3-21G
 ****


