%nproc=1
%NoSave
%Mem=1900MB
#P OB98/GEN NMR

erre ene a

0 1
  C       27.367      20.946      -6.630
  O       28.519      20.171      -6.358
  P       29.235      19.358      -7.536
  C       27.467      17.535      -8.106
  O       28.685      17.854      -7.468
  C       26.626      16.580      -7.249
  O       25.440      16.235      -8.003
  C       27.305      15.258      -6.910
  O       26.622      14.667      -5.802
  C       27.044      14.446      -8.159
  O       27.175      13.046      -7.930
  C       25.629      14.920      -8.577
  N       25.490      14.978     -10.044
  C       24.881      13.889     -10.660
  O       24.401      12.946     -10.033
  N       24.918      13.879     -12.028
  C       25.536      14.812     -12.807
  O       25.826      14.636     -13.984
  C       25.944      16.045     -12.116
  C       25.928      16.061     -10.781
  O       30.744      19.235      -7.016
  O       29.161      19.999      -8.878
  H       27.060      12.603      -8.803
  H       31.294      19.938      -7.410
  H       24.606      13.022     -12.469
  H       26.302      16.871     -12.715
  H       26.273      16.939     -10.242
  H       24.852      14.251      -8.190
  H       27.776      14.725      -8.927
  H       28.374      15.343      -6.694
  H       26.308      17.097      -6.335
  H       27.677      17.092      -9.083
  H       26.888      18.446      -8.296
  P       27.494      14.228      -4.530
  C       26.589      11.866      -4.963
  O       26.854      12.860      -3.995
  O       27.719      15.281      -3.497
  O       28.872      13.738      -5.190
  H       29.575      13.730      -4.515
  H       26.665      10.883      -4.490
  H       27.298      11.915      -5.793
  H       25.573      11.997      -5.346
  H       27.031      21.414      -5.728
  H       26.594      20.313      -7.014
  H       27.605      21.697      -7.354

 3  4  5  6  7  8  9  10  11  12  13  23  28  29  30  31  32 0
 6-311+G(2d,p)
 ****
 33  34 0
 6-311+G(2d,p)
 ****
 1  2  14  15  16  17  18  19  20  21  22  24  25  26  27 0
 3-21G
 ****
 35  36  37  38  39  40  41  42  43  44  45 0
 3-21G
 ****


