%nproc=1
%NoSave
%Mem=1900MB
#P OB98/GEN NMR

erre ene a

0 1
  C     -898.360     241.982     751.801
  O     -897.280     242.793     752.281
  P     -897.690     244.137     753.055
  C     -895.930     243.695     754.915
  O     -897.290     243.975     754.600
  C     -895.600     244.066     756.362
  O     -895.720     245.494     756.580
  C     -896.480     243.367     757.396
  O     -895.700     243.119     758.560
  C     -897.520     244.436     757.727
  O     -898.140     244.174     758.992
  C     -896.640     245.700     757.672
  N     -897.410     246.927     757.507
  C     -898.090     247.412     758.637
  O     -898.070     246.777     759.684
  N     -898.790     248.579     758.520
  C     -898.860     249.189     757.382
  N     -899.590     250.344     757.335
  C     -898.220     248.680     756.152
  C     -897.520     247.558     756.290
  O     -899.280     244.106     753.063
  O     -897.180     245.383     752.394
  H     -897.430     244.049     759.660
  H     -899.650     244.953     752.759
  H     -898.330     249.210     755.223
  H     -897.000     247.110     755.454
  H     -896.040     245.796     758.599
  H     -898.290     244.468     756.958
  H     -896.930     242.429     757.035
  H     -894.550     243.794     756.549
  H     -900.000     250.660     758.213
  H     -895.280     244.254     754.246
  H     -899.720     250.890     756.508
  H     -895.740     242.630     754.724
  P     -895.020     241.675     758.720
  C     -892.630     242.601     758.737
  O     -893.570     241.833     758.051
  O     -895.810     240.820     757.617
  O     -895.070     241.017     760.065
  H     -895.520     239.893     757.664
  H     -891.660     242.522     758.232
  H     -892.530     242.256     759.769
  H     -892.930     243.664     758.731
  H     -897.966     241.120     751.306
  H     -898.953     242.548     751.113
  H     -898.968     241.673     752.626

 3  4  5  6  7  8  9  10  11  12  13  21  23  27  28  29  30  32 0
 6-311+G(2d,p)
 ****
 34  35 0
 6-311+G(2d,p)
 ****
 1  2  14  15  16  17  18  19  20  22  24  25  26 0
 3-21G
 ****
 31  33  36  37  38  39  40  41  42  43  44  45  46 0
 3-21G
 ****


