%nproc=1
%NoSave
%Mem=1900MB
#P OB98/GEN NMR

erre ene a

0 1
  C     -184.641     -14.660    -272.887
  O     -183.428     -15.379    -273.047
  P     -182.078     -14.698    -272.508
  C     -180.236     -14.133    -274.259
  O     -181.507     -13.806    -273.717
  C     -180.288     -15.504    -274.935
  O     -181.295     -15.521    -275.977
  C     -178.991     -15.906    -275.629
  O     -178.037     -16.432    -274.718
  C     -179.483     -16.998    -276.567
  O     -179.648     -18.235    -275.844
  C     -180.854     -16.450    -277.004
  N     -182.454     -16.535    -281.803
  C     -182.865     -17.293    -280.723
  N     -183.786     -18.248    -280.970
  N     -182.413     -17.128    -279.504
  C     -181.479     -16.143    -279.408
  C     -180.996     -15.328    -280.407
  C     -181.499     -15.533    -281.752
  O     -181.130     -14.931    -282.760
  N     -180.071     -14.445    -279.926
  C     -179.988     -14.715    -278.635
  N     -180.796     -15.768    -278.286
  O     -181.050     -15.927    -272.445
  O     -182.210     -14.006    -271.193
  H     -178.752     -18.509    -275.556
  H     -180.284     -15.691    -271.883
  H     -182.831     -16.712    -282.723
  H     -179.359     -14.193    -277.930
  H     -181.608     -17.241    -277.065
  H     -178.792     -17.199    -277.389
  H     -184.136     -18.468    -281.891
  H     -178.575     -15.080    -276.219
  H     -184.065     -18.858    -280.206
  H     -180.573     -16.247    -274.178
  H     -179.496     -14.153    -273.461
  H     -179.947     -13.365    -274.983
  P     -176.490     -16.147    -275.041
  C     -175.332     -18.301    -275.925
  O     -176.113     -17.156    -276.229
  O     -175.736     -16.748    -273.766
  O     -176.169     -14.706    -275.276
  H     -174.879     -16.293    -273.631
  H     -175.393     -19.000    -276.767
  H     -175.704     -18.804    -275.030
  H     -174.284     -18.011    -275.781
  H     -185.451     -15.232    -273.290
  H     -184.573     -13.726    -273.404
  H     -184.814     -14.480    -271.847

 3  4  5  6  7  8  9  10  11  12  23  26  30  31 0
 6-311+G(2d,p)
 ****
 33  35  36  37  38 0
 6-311+G(2d,p)
 ****
 1  2  13  14  15  16  17  18  19  20  21  22  24  25 0
 3-21G
 ****
 27  28  29  32  34  39  40  41  42  43  44  45  46  47  48  49 0
 3-21G
 ****


