%nproc=1
%NoSave
%Mem=1900MB
#P OB98/GEN NMR

erre ene a

0 1
  C      145.500    -327.496     -15.260
  O      145.038    -327.861     -16.568
  P      144.118    -326.807     -17.353
  C      145.817    -325.488     -18.811
  O      144.801    -326.482     -18.772
  C      146.673    -325.609     -20.084
  O      146.795    -326.997     -20.493
  C      146.093    -324.847     -21.285
  O      147.180    -324.414     -22.111
  C      145.314    -325.922     -22.012
  O      145.048    -325.550     -23.370
  C      146.250    -327.113     -21.830
  N      146.174    -331.392     -24.504
  C      146.986    -330.274     -24.625
  N      147.941    -330.333     -25.578
  N      146.870    -329.209     -23.878
  C      145.891    -329.320     -22.945
  C      145.019    -330.359     -22.727
  C      145.141    -331.522     -23.581
  O      144.445    -332.536     -23.531
  N      144.153    -330.088     -21.699
  C      144.499    -328.874     -21.299
  N      145.570    -328.388     -21.994
  O      144.336    -325.449     -16.515
  O      142.673    -327.185     -17.403
  H      145.900    -325.259     -23.766
  H      143.525    -325.247     -16.009
  H      146.295    -332.181     -25.118
  H      144.011    -328.320     -20.510
  H      147.091    -327.103     -22.541
  H      144.354    -326.091     -21.515
  H      148.116    -331.139     -26.157
  H      145.474    -323.978     -21.024
  H      148.578    -329.543     -25.665
  H      147.678    -325.241     -19.861
  H      146.464    -325.573     -17.932
  H      145.350    -324.499     -18.740
  P      146.983    -323.047     -22.920
  C      147.959    -321.108     -21.497
  O      148.192    -322.094     -22.479
  O      145.703    -322.375     -22.225
  O      146.797    -323.212     -24.394
  H      145.256    -321.774     -22.845
  H      148.382    -321.442     -20.542
  H      146.886    -320.906     -21.363
  H      148.448    -320.173     -21.798
  H      146.098    -328.288     -14.859
  H      144.660    -327.324     -14.620
  H      146.087    -326.604     -15.325

 3  4  5  6  7  8  9  10  11  12  23  26  30  31 0
 6-311+G(2d,p)
 ****
 33  35  36  37  38 0
 6-311+G(2d,p)
 ****
 1  2  13  14  15  16  17  18  19  20  21  22  24  25 0
 3-21G
 ****
 27  28  29  32  34  39  40  41  42  43  44  45  46  47  48  49 0
 3-21G
 ****


