%nproc=1
%NoSave
%Mem=1900MB
#P OB98/GEN NMR

erre ene a

0 1
  C     -890.490     378.010     967.546
  O     -891.640     378.421     966.799
  P     -892.270     379.894     966.890
  C     -893.520     379.332     969.098
  O     -893.620     379.801     967.765
  C     -894.840     379.527     969.854
  O     -895.130     380.925     970.042
  C     -896.080     378.983     969.134
  O     -896.150     377.566     969.165
  C     -897.200     379.685     969.916
  O     -897.540     378.949     971.114
  C     -896.540     381.028     970.289
  N     -897.120     382.151     969.559
  C     -898.510     382.233     969.557
  O     -899.170     381.368     970.063
  N     -899.090     383.337     968.950
  C     -898.360     384.201     968.317
  N     -898.990     385.280     967.755
  C     -896.890     384.058     968.175
  C     -896.360     383.025     968.831
  O     -892.450     380.583     965.567
  O     -891.260     380.721     967.838
  H     -891.330     381.679     967.620
  H     -897.820     378.063     970.829
  H     -896.310     384.790     967.600
  H     -895.270     382.861     968.777
  H     -896.650     381.215     971.356
  H     -898.130     379.766     969.318
  H     -896.080     379.336     968.093
  H     -894.740     379.053     970.862
  H     -900.000     385.329     967.875
  H     -892.730     379.915     969.606
  H     -898.510     385.999     967.269
  H     -893.210     378.284     969.090
  P     -895.490     376.788     967.915
  C     -897.740     376.139     966.776
  O     -896.550     375.685     967.412
  O     -894.320     375.912     968.582
  O     -894.940     377.688     966.840
  H     -893.530     375.891     967.988
  H     -898.070     375.343     966.085
  H     -897.570     377.051     966.192
  H     -898.490     376.310     967.529
  H     -890.262     376.990     967.318
  H     -890.692     378.105     968.592
  H     -889.656     378.628     967.286

 3  4  5  6  7  8  9  10  11  12  13  24  27  28  29  30  32 0
 6-311+G(2d,p)
 ****
 34  35 0
 6-311+G(2d,p)
 ****
 1  2  14  15  16  17  18  19  20  21  22  23  25  26 0
 3-21G
 ****
 31  33  36  37  38  39  40  41  42  43  44  45  46 0
 3-21G
 ****


