%nproc=1
%NoSave
%Mem=1900MB
#P OB98/GEN NMR

erre ene a

0 1
  C      542.948      11.556    -602.559
  O      542.689      10.734    -601.396
  P      542.395      11.448    -599.981
  C      539.860      12.105    -599.920
  O      541.195      12.503    -600.174
  C      539.219      13.043    -598.898
  O      539.110      14.380    -599.437
  C      537.801      12.662    -598.492
  O      537.782      11.576    -597.573
  C      537.296      13.971    -597.893
  O      537.718      14.104    -596.518
  C      537.997      15.023    -598.782
  N      537.083      15.626    -599.753
  C      536.320      16.707    -599.316
  O      536.355      17.118    -598.148
  N      535.495      17.269    -600.237
  C      535.305      16.838    -601.524
  O      534.521      17.376    -602.298
  C      536.060      15.645    -601.907
  C      536.901      15.094    -601.015
  O      543.664      12.411    -599.829
  O      542.278      10.532    -598.808
  H      537.016      13.689    -595.980
  H      543.850      12.560    -598.879
  H      534.953      18.081    -599.949
  H      535.926      15.249    -602.916
  H      537.459      14.217    -601.292
  H      538.420      15.822    -598.166
  H      536.206      14.038    -597.888
  H      537.212      12.431    -599.396
  H      539.867      13.093    -598.007
  H      539.864      11.079    -599.519
  H      539.289      12.105    -600.859
  P      537.127      10.203    -598.095
  C      539.286       8.733    -597.937
  O      538.331       9.390    -598.743
  O      536.261      10.736    -599.328
  O      536.334       9.496    -597.042
  H      536.690      11.488    -599.787
  H      538.846       8.387    -596.983
  H      540.101       9.442    -597.707
  H      539.715       7.874    -598.471
  H      543.122      10.928    -603.408
  H      543.811      12.163    -602.382
  H      542.103      12.184    -602.747

 3  4  5  6  7  8  9  10  11  12  13  23  28  29  30  31  32 0
 6-311+G(2d,p)
 ****
 33  34 0
 6-311+G(2d,p)
 ****
 1  2  14  15  16  17  18  19  20  21  22  24  25  26 0
 3-21G
 ****
 27  35  36  37  38  39  40  41  42  43  44  45 0
 3-21G
 ****


