%nproc=1
%NoSave
%Mem=1900MB
#P OB98/GEN NMR

erre ene a

0 1
  C       98.127     -20.703      63.307
  O       96.845     -20.905      62.741
  H       98.422     -21.612      63.837
  H       98.095     -19.874      64.020
  H       98.856     -20.496      62.521
  P       96.237     -19.684      61.894
  C       94.838     -19.091      63.992
  O       95.756     -18.633      63.007
  C       94.636     -18.030      65.071
  O       95.901     -17.622      65.622
  C       93.968     -16.751      64.577
  O       92.561     -16.915      64.497
  C       94.361     -15.782      65.680
  O       93.501     -15.967      66.822
  C       95.793     -16.230      66.026
  N       99.658     -12.928      66.753
  C       98.684     -13.367      67.580
  N       97.666     -14.210      67.307
  C       97.709     -14.612      66.026
  C       98.643     -14.250      65.065
  C       99.661     -13.372      65.475
  N      100.660     -12.935      64.629
  N       98.366     -14.860      63.860
  C       97.316     -15.619      64.103
  N       96.858     -15.477      65.391
  O       95.236     -20.052      60.855
  O       97.577     -19.002      61.338
  H       92.643     -15.550      66.614
  H       98.276     -19.021      62.015
  H       98.729     -12.991      68.598
  H       96.862     -16.299      63.392
  H       95.983     -16.186      67.105
  H       94.260     -14.738      65.373
  H       94.401     -16.412      63.630
  H       94.058     -18.485      65.885
  H       95.197     -20.021      64.446
  H      101.245     -12.180      64.953
  H      100.588     -13.168      63.649
  H       93.890     -19.299      63.484
  P       91.742     -16.349      63.239
  C       91.070     -14.216      64.507
  O       91.747     -14.748      63.374
  O       90.394     -16.951      63.042
  O       92.701     -16.609      61.986
  H       92.176     -16.875      61.206
  H       91.138     -13.148      64.494
  H       91.522     -14.591      65.401
  H       90.041     -14.509      64.478

 6  7  8  9  10  11  12  13  14  15  25  28  32  33  34  35 0
 6-311+G(2d,p)
 ****
 36  39  40 0
 6-311+G(2d,p)
 ****
 1  2  3  4  5  16  17  18  19  20  21  22  23  24 0
 3-21G
 ****
 26  27  29  30  31  37  38  41  42  43  44  45  46  47 0
 3-21G
 ****
 48 0
 3-21G
 ****


