%nproc=1
%NoSave
%Mem=1900MB
#P OB98/GEN NMR

erre ene a

0 1
  C      853.868     539.570    -348.580
  O      852.552     539.099    -348.245
  P      852.272     537.681    -347.559
  C      851.312     538.294    -345.228
  O      852.446     537.855    -345.955
  C      851.564     538.209    -343.717
  O      852.064     536.891    -343.359
  C      852.622     539.155    -343.185
  O      852.163     540.512    -343.131
  C      852.920     538.533    -341.822
  O      851.976     538.974    -340.837
  C      852.735     537.023    -342.097
  N      853.977     536.286    -342.079
  C      854.736     536.359    -340.892
  O      854.372     537.070    -339.976
  N      855.876     535.600    -340.809
  C      856.305     534.944    -341.857
  N      857.446     534.206    -341.704
  C      855.608     534.968    -343.151
  C      854.467     535.642    -343.197
  O      853.079     536.562    -348.128
  O      850.693     537.420    -347.747
  H      850.531     536.460    -347.730
  H      852.042     539.957    -340.780
  H      856.021     534.424    -344.011
  H      853.882     535.692    -344.111
  H      852.042     536.602    -341.359
  H      853.916     538.793    -341.448
  H      853.520     539.099    -343.822
  H      850.608     538.372    -343.200
  H      857.883     534.207    -340.793
  H      850.449     537.652    -345.474
  H      857.832     533.640    -342.437
  H      851.049     539.329    -345.518
  P      852.851     541.544    -344.135
  C      850.920     542.223    -345.735
  O      852.083     541.436    -345.542
  O      854.292     540.895    -344.435
  O      852.983     542.943    -343.587
  H      854.954     541.599    -344.486
  H      850.824     542.433    -346.819
  H      850.993     543.186    -345.212
  H      850.057     541.665    -345.400
  H      853.797     540.540    -349.026
  H      854.324     538.892    -349.271
  H      854.463     539.629    -347.692

 3  4  5  6  7  8  9  10  11  12  13  24  27  28  29  30  32 0
 6-311+G(2d,p)
 ****
 34  35 0
 6-311+G(2d,p)
 ****
 1  2  14  15  16  17  18  19  20  21  22  23  25  26 0
 3-21G
 ****
 31  33  36  37  38  39  40  41  42  43  44  45  46 0
 3-21G
 ****


