%nproc=1
%NoSave
%Mem=1900MB
#P OB98/GEN NMR

erre ene a

0 1
  C      418.541    -702.080    -767.726
  O      418.330    -702.423    -766.369
  H      417.701    -702.459    -768.321
  H      419.464    -702.537    -768.095
  H      418.589    -700.993    -767.833
  P      419.484    -702.005    -765.335
  C      417.657    -700.698    -764.058
  O      418.700    -701.666    -763.963
  C      416.937    -700.568    -762.719
  O      416.296    -701.842    -762.409
  C      417.862    -700.214    -761.542
  O      417.172    -699.356    -760.630
  C      418.099    -701.559    -760.877
  O      418.485    -701.421    -759.513
  C      416.746    -702.238    -761.093
  N      416.223    -706.240    -757.984
  C      415.882    -704.934    -757.851
  N      416.044    -703.939    -758.740
  C      416.559    -704.407    -759.897
  C      416.952    -705.709    -760.183
  C      416.782    -706.652    -759.146
  N      417.153    -707.973    -759.254
  N      417.485    -705.784    -761.454
  C      417.402    -704.559    -761.936
  N      416.866    -703.688    -761.022
  O      420.421    -700.945    -765.804
  O      420.156    -703.424    -764.997
  H      419.254    -700.811    -759.465
  H      419.486    -704.098    -764.806
  H      415.443    -704.664    -756.898
  H      417.729    -704.243    -762.925
  H      415.992    -701.931    -760.353
  H      418.897    -702.096    -761.404
  H      418.796    -699.750    -761.862
  H      416.126    -699.817    -762.821
  H      416.935    -700.988    -764.837
  H      416.983    -708.580    -758.477
  H      417.567    -708.299    -760.122
  H      418.112    -699.737    -764.344
  P      418.008    -698.645    -759.448
  C      417.403    -696.248    -760.209
  O      417.352    -697.210    -759.160
  O      419.495    -698.639    -759.635
  O      417.572    -699.498    -758.163
  H      418.380    -699.647    -757.607
  H      416.933    -695.343    -759.886
  H      416.890    -696.629    -761.068
  H      418.424    -696.050    -760.462

 6  7  8  9  10  11  12  13  14  15  25  28  32  33  34  35 0
 6-311+G(2d,p)
 ****
 36  39  40 0
 6-311+G(2d,p)
 ****
 1  2  3  4  5  16  17  18  19  20  21  22  23  24 0
 3-21G
 ****
 26  27  29  30  31  37  38  41  42  43  44  45  46  47 0
 3-21G
 ****
 48 0
 3-21G
 ****


