%nproc=1
%NoSave
%Mem=1900MB
#P OB98/GEN NMR

erre ene a

0 1
  C     -386.849     356.596     -16.973
  O     -387.154     357.846     -16.392
  H     -386.959     355.822     -16.203
  H     -385.815     356.579     -17.334
  H     -387.536     356.373     -17.790
  P     -386.892     359.184     -17.244
  C     -386.314     360.623     -15.198
  O     -387.260     360.392     -16.233
  C     -387.000     360.783     -13.837
  O     -387.966     361.865     -13.899
  C     -387.742     359.522     -13.368
  O     -387.420     359.258     -12.000
  C     -389.212     359.903     -13.500
  O     -390.045     359.132     -12.635
  C     -389.155     361.409     -13.221
  N     -390.347     362.117     -13.675
  C     -391.339     362.348     -12.722
  O     -391.206     361.929     -11.565
  N     -392.482     363.014     -13.098
  C     -392.642     363.372     -14.329
  N     -393.796     364.018     -14.645
  C     -391.637     363.105     -15.388
  C     -390.523     362.486     -14.991
  O     -387.591     359.234     -18.561
  O     -385.300     359.283     -17.354
  H     -389.941     359.469     -11.722
  H     -385.058     359.880     -18.110
  H     -391.818     363.406     -16.404
  H     -389.727     362.258     -15.699
  H     -389.029     361.599     -12.142
  H     -389.544     359.729     -14.537
  H     -387.506     358.634     -13.951
  H     -386.245     361.095     -13.102
  H     -394.457     364.183     -13.892
  H     -385.742     361.529     -15.444
  H     -394.027     364.335     -15.580
  H     -385.633     359.766     -15.153
  P     -386.202     358.239     -11.742
  C     -387.478     356.540     -10.248
  O     -386.447     357.522     -10.325
  O     -384.965     359.214     -11.470
  O     -385.948     357.318     -12.887
  H     -384.409     359.288     -12.273
  H     -387.526     356.151      -9.252
  H     -387.265     355.745     -10.932
  H     -388.416     356.987     -10.502

 6  7  8  9  10  11  12  13  14  15  16  26  30  31  32  33  35 0
 6-311+G(2d,p)
 ****
 37  38 0
 6-311+G(2d,p)
 ****
 1  2  3  4  5  17  18  19  20  21  22  23  24  25 0
 3-21G
 ****
 27  28  29  34  36  39  40  41  42  43  44  45  46 0
 3-21G
 ****


