%nproc=1
%NoSave
%Mem=1900MB
#P OB98/GEN NMR

erre ene a

0 1
  C      -18.926    -195.051     166.983
  O      -18.569    -193.685     166.739
  P      -17.825    -192.791     167.845
  C      -15.489    -193.722     168.375
  O      -16.234    -192.790     167.595
  C      -14.133    -194.086     167.751
  O      -14.274    -194.374     166.330
  C      -13.050    -193.003     167.876
  O      -11.804    -193.697     167.956
  C      -13.173    -192.277     166.542
  O      -12.027    -191.509     166.206
  C      -13.431    -193.457     165.607
  N      -13.182    -193.765     160.494
  C      -12.524    -194.433     161.470
  N      -12.672    -194.325     162.805
  C      -13.640    -193.443     163.112
  C      -14.408    -192.694     162.229
  C      -14.134    -192.871     160.858
  N      -14.770    -192.160     159.863
  N      -15.282    -191.871     162.914
  C      -15.045    -192.116     164.189
  N      -14.063    -193.062     164.360
  O      -18.218    -193.108     169.255
  O      -18.253    -191.285     167.491
  H      -11.313    -192.122     165.941
  H      -18.511    -190.822     168.311
  H      -11.777    -195.147     161.128
  H      -15.529    -191.626     165.021
  H      -12.497    -193.982     165.359
  H      -14.032    -191.594     166.582
  H      -13.187    -192.344     168.732
  H      -13.792    -195.018     168.224
  H      -16.092    -194.635     168.497
  H      -14.447    -192.288     158.918
  H      -15.393    -191.402     160.117
  H      -15.328    -193.296     169.372
  P      -10.898    -193.653     169.279
  C      -12.084    -195.097     171.032
  O      -11.095    -195.065     170.018
  O      -11.112    -192.454     170.147
  O       -9.392    -193.726     168.737
  H       -8.780    -193.402     169.432
  H      -11.704    -194.608     171.937
  H      -12.328    -196.137     171.259
  H      -12.999    -194.588     170.704
  H      -19.409    -195.453     166.117
  H      -19.592    -195.102     167.819
  H      -18.044    -195.618     167.195

 3  4  5  6  7  8  9  10  11  12  22  25  29  30  31  32 0
 6-311+G(2d,p)
 ****
 33  36  37 0
 6-311+G(2d,p)
 ****
 1  2  13  14  15  16  17  18  19  20  21  23  24  26 0
 3-21G
 ****
 27  28  34  35  38  39  40  41  42  43  44  45  46  47  48 0
 3-21G
 ****


