%nproc=1
%NoSave
%Mem=1900MB
#P OB98/GEN NMR

erre ene a

0 1
  C     -133.724     373.992    -170.757
  O     -133.793     374.238    -172.160
  P     -134.823     373.328    -172.995
  C     -134.872     370.901    -173.923
  O     -134.118     371.909    -173.269
  C     -134.025     370.179    -174.971
  O     -133.941     370.919    -176.207
  C     -132.591     369.944    -174.527
  O     -132.526     368.820    -173.663
  C     -131.886     369.713    -175.862
  O     -132.018     368.342    -176.291
  C     -132.644     370.652    -176.809
  N     -131.474     373.982    -180.446
  C     -132.051     372.730    -180.550
  N     -132.383     372.319    -181.789
  N     -132.279     371.954    -179.520
  C     -131.897     372.499    -178.339
  C     -131.345     373.737    -178.115
  C     -131.087     374.586    -179.260
  O     -130.604     375.712    -179.221
  N     -131.147     373.961    -176.775
  C     -131.465     372.813    -176.204
  N     -131.983     371.911    -177.104
  O     -134.855     374.029    -174.437
  O     -136.185     373.259    -172.385
  H     -132.911     368.026    -176.091
  H     -135.721     374.458    -174.575
  H     -131.314     374.536    -181.274
  H     -131.354     372.587    -175.156
  H     -132.831     370.173    -177.781
  H     -130.809     369.909    -175.793
  H     -132.240     372.865    -182.627
  H     -132.192     370.844    -174.042
  H     -132.811     371.402    -181.881
  H     -134.511     369.218    -175.185
  H     -135.756     371.346    -174.399
  H     -135.248     370.198    -173.170
  P     -132.303     369.093    -172.095
  C     -130.267     369.540    -170.555
  O     -130.730     369.240    -171.852
  O     -132.669     367.685    -171.428
  O     -133.147     370.192    -171.532
  H     -133.225     367.834    -170.636
  H     -129.270     369.102    -170.424
  H     -130.931     369.135    -169.783
  H     -130.195     370.623    -170.434
  H     -133.010     374.654    -170.314
  H     -133.425     372.979    -170.587
  H     -134.685     374.159    -170.318

 3  4  5  6  7  8  9  10  11  12  23  26  30  31 0
 6-311+G(2d,p)
 ****
 33  35  36  37  38 0
 6-311+G(2d,p)
 ****
 1  2  13  14  15  16  17  18  19  20  21  22  24  25 0
 3-21G
 ****
 27  28  29  32  34  39  40  41  42  43  44  45  46  47  48  49 0
 3-21G
 ****


