%nproc=1
%NoSave
%Mem=1900MB
#P OB98/GEN NMR

erre ene a

0 1
  C     -109.130    -306.481     569.156
  O     -108.750    -307.489     568.239
  H     -109.491    -305.615     568.596
  H     -108.266    -306.180     569.755
  H     -109.933    -306.841     569.809
  P     -108.359    -308.919     568.860
  C     -109.768    -310.971     569.686
  O     -109.747    -309.660     569.156
  C     -110.902    -311.789     569.062
  O     -112.168    -311.288     569.565
  C     -110.947    -311.716     567.535
  O     -111.372    -312.984     567.034
  C     -112.023    -310.680     567.263
  O     -112.592    -310.822     565.964
  C     -112.989    -310.941     568.432
  N     -113.842    -309.787     568.716
  C     -114.568    -309.263     567.645
  O     -114.460    -309.759     566.520
  N     -115.364    -308.165     567.850
  C     -115.383    -307.599     569.016
  N     -116.172    -306.498     569.155
  C     -114.601    -308.091     570.169
  C     -113.867    -309.181     569.952
  O     -107.827    -308.509     570.314
  O     -107.379    -309.698     568.045
  H     -111.862    -310.858     565.308
  H     -108.393    -307.857     570.761
  H     -114.641    -307.577     571.117
  H     -113.267    -309.617     570.744
  H     -113.634    -311.800     568.212
  H     -111.603    -309.671     567.335
  H     -109.980    -311.450     567.097
  H     -110.813    -312.827     569.406
  H     -116.675    -306.178     568.334
  H     -109.899    -310.943     570.772
  H     -116.222    -305.944     569.995
  H     -108.801    -311.440     569.474
  P     -110.318    -313.947     566.316
  C     -108.311    -314.161     567.937
  O     -109.496    -314.761     567.431
  O     -109.488    -313.321     565.248
  O     -111.253    -315.091     565.682
  H     -110.906    -315.305     564.797
  H     -107.868    -314.806     568.666
  H     -108.552    -313.222     568.391
  H     -107.621    -314.002     567.135

 6  7  8  9  10  11  12  13  14  15  16  26  30  31  32  33  35 0
 6-311+G(2d,p)
 ****
 37  38 0
 6-311+G(2d,p)
 ****
 1  2  3  4  5  17  18  19  20  21  22  23  24  25 0
 3-21G
 ****
 27  28  29  34  36  39  40  41  42  43  44  45  46 0
 3-21G
 ****


