%nproc=1
%NoSave
%Mem=1900MB
#P OB98/GEN NMR

erre ene a

0 1
  C       94.003     288.443    -193.425
  O       94.509     289.421    -192.521
  P       96.094     289.503    -192.294
  C       96.339     291.863    -193.468
  O       96.573     291.026    -192.358
  C       96.080     293.298    -192.976
  O       94.719     293.425    -192.502
  C       96.995     293.720    -191.832
  O       98.223     294.244    -192.298
  C       96.137     294.734    -191.101
  O       96.152     295.993    -191.801
  C       94.738     294.076    -191.202
  N       94.364     293.086    -190.167
  C       94.163     293.505    -188.853
  O       94.284     294.662    -188.467
  N       93.802     292.524    -187.961
  C       93.455     291.239    -188.269
  O       93.078     290.424    -187.438
  C       93.539     290.895    -189.692
  C       93.993     291.807    -190.557
  O       96.703     288.856    -193.623
  O       96.578     288.809    -191.058
  H       97.042     296.366    -191.706
  H       97.182     288.033    -193.412
  H       93.721     292.793    -186.995
  H       93.229     289.898    -189.991
  H       94.056     291.558    -191.612
  H       93.953     294.841    -191.207
  H       96.525     294.938    -190.104
  H       97.167     292.876    -191.152
  H       96.204     293.985    -193.822
  H       95.489     291.508    -194.055
  H       97.212     291.844    -194.132
  P       99.480     294.343    -191.309
  C      101.001     292.661    -192.507
  O      100.767     294.029    -192.213
  O       99.376     293.566    -190.039
  O       99.621     295.922    -191.038
  H       99.167     296.171    -190.202
  H      101.802     292.598    -193.252
  H      100.100     292.201    -192.917
  H      101.314     292.134    -191.607
  H       92.936     288.514    -193.467
  H       94.282     287.467    -193.087
  H       94.411     288.613    -194.400

 3  4  5  6  7  8  9  10  11  12  13  23  28  29  30  31  32 0
 6-311+G(2d,p)
 ****
 33  34 0
 6-311+G(2d,p)
 ****
 1  2  14  15  16  17  18  19  20  21  22  24  25  26  27 0
 3-21G
 ****
 35  36  37  38  39  40  41  42  43  44  45 0
 3-21G
 ****


