%nproc=1
%NoSave
%Mem=1900MB
#P OB98/GEN NMR

erre ene a

0 1
  C      160.848    -214.295    -131.711
  O      162.127    -214.896    -131.717
  H      160.684    -213.802    -132.674
  H      160.790    -213.545    -130.918
  H      160.071    -215.051    -131.565
  P      162.526    -215.775    -130.437
  C      163.069    -215.246    -127.944
  O      162.644    -214.750    -129.205
  C      163.706    -214.116    -127.129
  O      164.974    -213.760    -127.746
  C      162.846    -212.846    -127.081
  O      162.984    -212.240    -125.792
  C      163.479    -211.957    -128.140
  O      163.230    -210.570    -127.946
  C      164.955    -212.337    -127.993
  N      165.742    -212.008    -129.183
  C      165.757    -210.680    -129.595
  O      165.221    -209.751    -128.989
  N      166.429    -210.431    -130.766
  C      167.048    -211.360    -131.553
  O      167.612    -211.075    -132.602
  C      166.990    -212.748    -131.070
  C      166.348    -213.005    -129.927
  O      164.048    -216.177    -130.722
  O      161.659    -216.961    -130.171
  H      164.094    -217.023    -131.210
  H      163.684    -210.080    -128.663
  H      166.454    -209.473    -131.078
  H      167.462    -213.510    -131.672
  H      166.274    -214.019    -129.550
  H      165.392    -211.847    -127.114
  H      163.105    -212.231    -129.134
  H      161.792    -213.035    -127.290
  H      163.926    -214.485    -126.121
  H      163.808    -216.037    -128.100
  H      162.207    -215.661    -127.410
  P      161.649    -212.057    -124.916
  C      159.954    -210.089    -124.604
  O      161.025    -210.643    -125.353
  O      162.257    -211.792    -123.462
  O      160.724    -213.228    -125.013
  H      163.074    -211.263    -123.475
  H      159.666    -209.152    -125.033
  H      160.268    -209.937    -123.592
  H      159.121    -210.761    -124.622

 6  7  8  9  10  11  12  13  14  15  16  27  31  32  33  34  35 0
 6-311+G(2d,p)
 ****
 36  37 0
 6-311+G(2d,p)
 ****
 1  2  3  4  5  17  18  19  20  21  22  23  24  25 0
 3-21G
 ****
 26  28  29  30  38  39  40  41  42  43  44  45 0
 3-21G
 ****


