%nproc=1
%NoSave
%Mem=1900MB
#P OB98/GEN NMR

erre ene a

0 1
  C     -895.390     673.051     332.046
  O     -894.660     674.263     331.845
  P     -894.700     675.378     332.992
  C     -897.140     676.223     332.669
  O     -895.730     676.536     332.551
  C     -897.970     677.509     332.635
  O     -897.690     678.321     333.823
  C     -897.620     678.428     331.468
  O     -898.010     677.979     330.179
  C     -898.170     679.748     331.920
  O     -899.570     679.874     331.688
  C     -897.900     679.708     333.456
  N     -896.740     680.526     333.865
  C     -897.030     681.848     334.166
  O     -898.140     682.339     334.121
  N     -895.930     682.613     334.552
  C     -894.650     682.203     334.593
  O     -893.710     682.922     334.904
  C     -894.410     680.792     334.219
  C     -895.450     680.033     333.845
  O     -893.360     675.890     333.464
  O     -895.460     674.679     334.189
  H     -900.000     679.133     332.145
  H     -895.020     674.911     335.023
  H     -896.120     683.576     334.804
  H     -893.380     680.437     334.234
  H     -895.300     679.002     333.577
  H     -898.770     680.070     334.022
  H     -897.680     680.588     331.406
  H     -896.520     678.528     331.441
  H     -899.030     677.252     332.652
  H     -897.310     675.673     333.602
  H     -897.430     675.551     331.842
  P     -896.980     677.352     329.126
  C     -896.490     679.543     327.835
  O     -897.030     678.226     327.795
  O     -896.980     675.865     328.957
  O     -895.570     677.794     329.768
  H     -894.900     677.096     329.566
  H     -896.610     680.016     326.847
  H     -895.400     679.505     328.067
  H     -897.020     680.155     328.582
  H     -895.264     672.413     331.196
  H     -896.428     673.277     332.171
  H     -895.025     672.556     332.921

 3  4  5  6  7  8  9  10  11  12  13  23  28  29  30  31  32 0
 6-311+G(2d,p)
 ****
 33  34 0
 6-311+G(2d,p)
 ****
 1  2  14  15  16  17  18  19  20  21  22  24  25  26  27 0
 3-21G
 ****
 35  36  37  38  39  40  41  42  43  44  45 0
 3-21G
 ****


