%nproc=1
%NoSave
%Mem=1900MB
#P OB98/GEN NMR

erre ene a

0 1
  C     -176.773    -536.563     151.200
  O     -177.808    -537.528     151.283
  P     -179.334    -537.091     151.505
  C     -179.988    -539.554     151.159
  O     -180.079    -538.421     152.011
  C     -179.560    -540.781     151.962
  O     -178.132    -540.704     152.180
  C     -180.172    -540.915     153.356
  O     -181.455    -541.526     153.378
  C     -179.165    -541.844     154.017
  O     -179.402    -543.203     153.595
  C     -177.837    -541.338     153.455
  N     -174.347    -540.745     157.149
  C     -174.749    -541.831     156.445
  N     -175.700    -541.912     155.490
  C     -176.227    -540.699     155.252
  C     -175.916    -539.508     155.880
  C     -174.928    -539.554     156.872
  N     -174.503    -538.441     157.569
  N     -176.688    -538.476     155.372
  C     -177.436    -539.040     154.446
  N     -177.190    -540.381     154.330
  O     -179.957    -536.405     150.337
  O     -179.299    -536.179     152.813
  H     -178.816    -543.772     154.132
  H     -180.121    -535.653     152.880
  H     -174.242    -542.762     156.685
  H     -178.167    -538.525     153.843
  H     -177.127    -542.149     153.256
  H     -179.237    -541.834     155.112
  H     -180.182    -539.957     153.879
  H     -179.761    -541.673     151.359
  H     -179.235    -539.349     150.387
  H     -173.705    -538.550     158.168
  H     -174.820    -537.537     157.257
  H     -180.951    -539.725     150.663
  P     -182.308    -541.386     154.736
  C     -184.186    -543.035     153.955
  O     -183.143    -542.750     154.861
  O     -183.110    -540.138     154.837
  O     -181.187    -541.525     155.871
  H     -180.773    -542.401     155.936
  H     -184.512    -544.073     154.110
  H     -183.850    -542.930     152.929
  H     -185.036    -542.379     154.144
  H     -175.836    -537.057     151.052
  H     -176.738    -535.998     152.108
  H     -176.964    -535.905     150.378

 3  4  5  6  7  8  9  10  11  12  22  25  29  30  31  32 0
 6-311+G(2d,p)
 ****
 33  36  37 0
 6-311+G(2d,p)
 ****
 1  2  13  14  15  16  17  18  19  20  21  23  24  26 0
 3-21G
 ****
 27  28  34  35  38  39  40  41  42  43  44  45  46  47  48 0
 3-21G
 ****


