%nproc=1
%NoSave
%Mem=1900MB
#P OB98/GEN NMR

erre ene a

0 1
  C       59.803    -537.432     -77.642
  O       59.947    -536.169     -77.021
  H       58.794    -537.798     -77.452
  H       60.516    -538.144     -77.219
  H       59.953    -537.352     -78.722
  P       61.302    -535.343     -77.247
  C       60.501    -534.320     -79.475
  O       61.463    -535.151     -78.834
  C       61.212    -533.225     -80.265
  O       62.083    -532.463     -79.391
  C       62.098    -533.742     -81.388
  O       61.321    -534.155     -82.497
  C       62.984    -532.526     -81.637
  O       62.294    -531.543     -82.423
  C       63.194    -532.002     -80.195
  N       64.472    -532.440     -79.619
  C       65.592    -531.696     -79.983
  O       65.546    -530.738     -80.744
  N       66.786    -532.142     -79.475
  C       66.973    -533.268     -78.730
  O       68.078    -533.743     -78.485
  C       65.747    -533.964     -78.320
  C       64.575    -533.535     -78.780
  O       62.508    -535.873     -76.551
  O       60.931    -533.866     -76.745
  H       61.295    -533.733     -75.854
  H       61.401    -531.445     -82.026
  H       67.607    -531.641     -79.771
  H       65.849    -534.830     -77.673
  H       63.660    -534.055     -78.512
  H       63.173    -530.912     -80.174
  H       63.899    -532.777     -82.168
  H       62.733    -534.567     -81.020
  H       60.451    -532.537     -80.657
  H       59.865    -533.872     -78.714
  H       59.883    -534.931     -80.138
  P       61.861    -535.257     -83.527
  C       60.527    -537.390     -83.025
  O       61.746    -536.691     -82.824
  O       63.194    -534.961     -84.124
  O       60.729    -535.322     -84.657
  H       61.148    -535.193     -85.533
  H       60.565    -538.328     -82.512
  H       60.382    -537.561     -84.071
  H       59.715    -536.808     -82.643

 6  7  8  9  10  11  12  13  14  15  16  27  31  32  33  34  35 0
 6-311+G(2d,p)
 ****
 36  37 0
 6-311+G(2d,p)
 ****
 1  2  3  4  5  17  18  19  20  21  22  23  24  25 0
 3-21G
 ****
 26  28  29  30  38  39  40  41  42  43  44  45 0
 3-21G
 ****


