%nproc=1
%NoSave
%Mem=1900MB
#P OB98/GEN NMR

erre ene a

0 1
  C     -851.669     401.853    -121.231
  O     -852.359     403.030    -120.804
  P     -852.250     404.332    -121.732
  C     -851.096     405.479    -119.674
  O     -852.054     405.563    -120.736
  C     -851.337     406.585    -118.651
  O     -851.237     407.905    -119.287
  C     -852.732     406.556    -118.015
  O     -852.826     405.510    -117.065
  C     -852.810     407.964    -117.439
  O     -852.113     408.039    -116.193
  C     -852.087     408.800    -118.518
  N     -852.993     409.542    -119.381
  C     -852.556     410.819    -119.745
  O     -851.515     411.321    -119.337
  N     -853.401     411.528    -120.562
  C     -854.614     411.088    -121.029
  O     -855.316     411.754    -121.778
  C     -855.029     409.745    -120.584
  C     -854.216     409.043    -119.789
  O     -853.756     404.471    -122.246
  O     -851.222     404.198    -122.810
  H     -854.410     404.211    -121.584
  H     -852.638     407.513    -115.547
  H     -853.114     412.442    -120.844
  H     -855.990     409.388    -120.915
  H     -854.504     408.065    -119.449
  H     -851.399     409.509    -118.039
  H     -853.844     408.276    -117.244
  H     -853.492     406.421    -118.794
  H     -850.568     406.520    -117.884
  H     -850.091     405.583    -120.087
  H     -851.172     404.498    -119.207
  P     -853.642     404.200    -117.499
  C     -855.739     405.075    -116.195
  O     -854.834     404.025    -116.426
  O     -852.598     403.045    -117.131
  O     -854.078     404.206    -118.928
  H     -852.181     403.175    -116.255
  H     -856.630     404.657    -115.727
  H     -856.036     405.557    -117.134
  H     -855.305     405.812    -115.518
  H     -851.829     401.069    -120.521
  H     -850.622     402.060    -121.304
  H     -852.040     401.549    -122.188

 3  4  5  6  7  8  9  10  11  12  13  24  28  29  30  31  32 0
 6-311+G(2d,p)
 ****
 33  34 0
 6-311+G(2d,p)
 ****
 1  2  14  15  16  17  18  19  20  21  22  23  25  26  27 0
 3-21G
 ****
 35  36  37  38  39  40  41  42  43  44  45 0
 3-21G
 ****


