%nproc=1
%NoSave
%Mem=1900MB
#P OB98/GEN NMR

erre ene a

0 1
  C      268.461    -526.682    -267.890
  O      267.797    -527.847    -268.339
  P      266.610    -527.726    -269.407
  C      268.052    -528.150    -271.488
  O      267.240    -527.213    -270.792
  C      268.127    -527.786    -272.971
  O      266.963    -528.272    -273.669
  C      268.158    -526.284    -273.239
  O      269.447    -525.759    -272.973
  C      267.744    -526.242    -274.706
  O      268.858    -526.519    -275.563
  C      266.718    -527.384    -274.778
  N      262.076    -527.968    -276.807
  C      263.274    -528.470    -277.158
  N      264.487    -528.231    -276.589
  C      264.355    -527.364    -275.570
  C      263.208    -526.742    -275.126
  C      262.005    -527.095    -275.777
  N      260.763    -526.643    -275.385
  N      263.488    -525.890    -274.075
  C      264.797    -525.987    -273.904
  N      265.347    -526.919    -274.741
  O      265.410    -526.968    -268.937
  O      266.232    -529.245    -269.724
  H      268.507    -526.617    -276.471
  H      265.300    -529.403    -269.480
  H      263.279    -529.155    -278.000
  H      265.373    -525.431    -273.172
  H      266.832    -527.980    -275.693
  H      267.340    -525.264    -274.998
  H      267.402    -525.787    -272.636
  H      269.003    -528.279    -273.395
  H      267.612    -529.144    -271.377
  H      259.969    -527.069    -275.830
  H      260.664    -526.243    -274.456
  H      269.051    -528.159    -271.051
  P      269.674    -524.179    -272.981
  C      269.793    -523.972    -270.428
  O      269.094    -523.602    -271.605
  O      269.207    -523.463    -274.212
  O      271.251    -524.015    -272.795
  H      271.565    -523.218    -273.267
  H      269.545    -524.998    -270.159
  H      269.497    -523.304    -269.621
  H      270.880    -523.884    -270.587
  H      269.219    -526.953    -267.185
  H      267.756    -526.027    -267.422
  H      268.911    -526.184    -268.724

 3  4  5  6  7  8  9  10  11  12  22  25  29  30  31  32 0
 6-311+G(2d,p)
 ****
 33  36  37 0
 6-311+G(2d,p)
 ****
 1  2  13  14  15  16  17  18  19  20  21  23  24  26 0
 3-21G
 ****
 27  28  34  35  38  39  40  41  42  43  44  45  46  47  48 0
 3-21G
 ****


