%nproc=1
%NoSave
%Mem=1900MB
#P OB98/GEN NMR

erre ene a

0 1
  C      111.771      23.835     153.279
  O      110.668      23.346     152.508
  P      109.815      24.443     151.696
  C      111.078      26.622     151.029
  O      110.840      25.248     150.756
  C      111.572      27.347     149.780
  O      112.704      26.664     149.199
  C      110.546      27.434     148.656
  O      109.607      28.477     148.885
  C      111.435      27.759     147.468
  O      111.713      29.168     147.430
  C      112.717      26.965     147.783
  N      113.126      24.846     143.192
  C      113.051      26.179     143.549
  N      113.121      27.075     142.539
  N      112.921      26.597     144.782
  C      112.891      25.587     145.687
  C      112.954      24.231     145.462
  C      113.072      23.782     144.091
  O      113.109      22.614     143.714
  N      112.905      23.521     146.637
  C      112.842      24.449     147.574
  N      112.815      25.716     147.050
  O      109.435      25.512     152.826
  O      108.608      23.890     151.018
  H      111.704      29.489     148.355
  H      108.611      25.972     152.586
  H      113.222      24.581     142.229
  H      112.815      24.253     148.639
  H      113.619      27.556     147.581
  H      110.971      27.502     146.506
  H      113.297      26.826     141.577
  H      110.052      26.463     148.501
  H      113.105      28.059     142.787
  H      111.892      28.356     150.073
  H      111.822      26.718     151.824
  H      110.153      27.077     151.406
  P      108.550      28.264     150.074
  C      108.807      28.604     152.635
  O      109.160      29.041     151.337
  O      108.724      26.716     150.448
  O      107.138      28.597     149.711
  H      107.893      26.360     150.802
  H      108.830      27.515     152.706
  H      107.805      28.971     152.884
  H      109.525      29.018     153.352
  H      112.255      23.016     153.769
  H      111.414      24.528     154.012
  H      112.468      24.326     152.633

 3  4  5  6  7  8  9  10  11  12  23  26  30  31  33  0
 6-311+G(2d,p)
 ****
 35  36  37  38 0
 6-311+G(2d,p)
 ****
 1  2  13  14  15  16  17  18  19  20  21  22  24  25  27  28  29 0
 3-21G
 ****
 32  34  39  40  41  42  43  44  45  46  47  48  49 0
 3-21G
 ****


