%nproc=1
%NoSave
%Mem=1900MB
#P OB98/GEN NMR

erre ene a

0 1
  C        7.005     162.306     531.214
  O        5.760     162.752     531.755
  P        4.439     162.235     531.005
  C        2.675     162.323     532.899
  O        3.176     162.923     531.718
  C        3.493     162.742     534.125
  O        3.586     164.197     534.206
  C        2.903     162.253     535.461
  O        4.009     161.962     536.321
  C        2.151     163.485     535.942
  O        1.816     163.433     537.320
  C        3.137     164.569     535.528
  N        1.207     168.269     538.464
  C        1.684     167.041     538.755
  N        2.180     166.109     537.913
  C        2.157     166.562     536.647
  C        1.699     167.787     536.195
  C        1.206     168.669     537.169
  N        0.697     169.917     536.878
  N        1.820     167.874     534.815
  C        2.272     166.689     534.451
  N        2.568     165.899     535.523
  O        4.337     160.699     531.440
  O        4.490     162.406     529.522
  H        2.598     163.161     537.841
  H        4.689     160.122     530.736
  H        1.662     166.766     539.809
  H        2.401     166.355     533.430
  H        4.019     164.597     536.182
  H        1.212     163.579     535.383
  H        2.279     161.363     535.364
  H        4.513     162.358     534.008
  H        2.704     161.232     532.809
  H        0.361     170.477     537.647
  H        0.665     170.250     535.925
  H        1.619     162.589     533.018
  P        4.431     160.432     536.553
  C        6.975     160.750     536.436
  O        5.861     160.512     537.278
  O        4.860     160.017     535.061
  O        3.397     159.547     537.160
  H        5.477     160.668     534.679
  H        7.863     160.860     537.059
  H        6.827     161.668     535.860
  H        7.119     159.900     535.760
  H        7.810     162.711     531.791
  H        7.092     162.636     530.200
  H        7.045     161.237     531.246

 3  4  5  6  7  8  9  10  11  12  22  25  29  30  31  32 0
 6-311+G(2d,p)
 ****
 33  36  37 0
 6-311+G(2d,p)
 ****
 1  2  13  14  15  16  17  18  19  20  21  23  24  26 0
 3-21G
 ****
 27  28  34  35  38  39  40  41  42  43  44  45  46  47  48 0
 3-21G
 ****


