%nproc=1
%NoSave
%Mem=1900MB
#P OB98/GEN NMR

erre ene a

0 1
  C      129.058     198.980    -212.610
  O      129.532     197.802    -213.243
  P      129.247     197.618    -214.808
  C      129.332     195.020    -214.853
  O      129.928     196.239    -215.277
  C      130.187     193.823    -215.274
  O      129.975     193.542    -216.685
  C      131.695     194.041    -215.077
  O      132.315     192.793    -214.729
  C      132.181     194.416    -216.462
  O      133.572     194.145    -216.621
  C      131.262     193.554    -217.331
  N      132.980     193.063    -222.064
  C      133.117     192.208    -220.989
  N      133.891     191.115    -221.182
  N      132.541     192.399    -219.831
  C      131.805     193.538    -219.779
  C      131.583     194.456    -220.782
  C      132.236     194.236    -222.054
  O      132.177     194.969    -223.038
  N      130.748     195.462    -220.367
  C      130.496     195.183    -219.101
  N      131.146     194.045    -218.689
  O      130.179     198.737    -215.476
  O      127.822     197.799    -215.212
  H      134.038     194.615    -215.903
  H      129.628     199.488    -215.779
  H      133.452     192.880    -222.934
  H      129.881     195.778    -218.439
  H      131.617     192.515    -217.381
  H      132.012     195.485    -216.642
  H      134.417     190.945    -222.026
  H      131.950     194.796    -214.326
  H      134.044     190.496    -220.398
  H      129.850     192.939    -214.719
  H      128.343     194.931    -215.303
  H      129.212     195.032    -213.764
  P      133.052     192.750    -213.304
  C      135.389     191.947    -214.131
  O      134.195     191.635    -213.431
  O      131.963     192.068    -212.345
  O      133.493     194.083    -212.799
  H      132.108     192.336    -211.421
  H      136.228     191.895    -213.436
  H      135.357     192.945    -214.584
  H      135.537     191.209    -214.929
  H      129.323     198.959    -211.574
  H      127.994     199.032    -212.705
  H      129.500     199.837    -213.074

 3  4  5  6  7  8  9  10  11  12  23  26  30  31 0
 6-311+G(2d,p)
 ****
 33  35  36  37  38 0
 6-311+G(2d,p)
 ****
 1  2  13  14  15  16  17  18  19  20  21  22  24  25 0
 3-21G
 ****
 27  28  29  32  34  39  40  41  42  43  44  45  46  47  48  49 0
 3-21G
 ****


