%nproc=1
%NoSave
%Mem=1900MB
#P OB98/GEN NMR

erre ene a

0 1
  C      232.243    -446.488      97.380
  O      233.382    -446.278      96.543
  P      233.766    -444.791      96.094
  C      236.008    -444.880      97.382
  O      235.359    -444.618      96.143
  C      237.490    -445.191      97.144
  O      237.656    -446.401      96.365
  C      238.199    -444.112      96.335
  O      238.401    -442.867      96.976
  C      239.430    -444.844      95.829
  O      240.468    -444.866      96.809
  C      238.872    -446.267      95.596
  N      238.642    -446.560      94.182
  C      239.423    -447.571      93.632
  O      240.292    -448.172      94.261
  N      239.196    -447.849      92.310
  C      238.309    -447.207      91.498
  O      238.161    -447.481      90.314
  C      237.531    -446.128      92.128
  C      237.731    -445.858      93.420
  O      232.987    -443.698      96.742
  O      233.475    -444.815      94.513
  H      241.216    -445.366      96.432
  H      233.055    -443.966      94.274
  H      239.746    -448.585      91.897
  H      236.823    -445.591      91.510
  H      237.167    -445.069      93.905
  H      239.570    -447.020      95.983
  H      239.844    -444.368      94.937
  H      237.580    -443.889      95.455
  H      237.972    -445.353      98.108
  H      235.520    -445.717      97.886
  H      235.887    -444.011      98.038
  P      237.609    -441.534      96.573
  C      237.277    -440.538      98.943
  O      237.904    -440.416      97.686
  O      236.201    -441.685      96.111
  O      238.496    -441.004      95.339
  H      237.902    -440.556      94.705
  H      237.576    -439.688      99.565
  H      237.588    -441.460      99.439
  H      236.192    -440.521      98.831
  H      232.135    -447.534      97.580
  H      231.365    -446.127      96.885
  H      232.375    -445.960      98.301

 3  4  5  6  7  8  9  10  11  12  13  23  28  29  30  31  32 0
 6-311+G(2d,p)
 ****
 33  34 0
 6-311+G(2d,p)
 ****
 1  2  14  15  16  17  18  19  20  21  22  24  25  26  27 0
 3-21G
 ****
 35  36  37  38  39  40  41  42  43  44  45 0
 3-21G
 ****


