%nproc=1
%NoSave
%Mem=1900MB
#P OB98/GEN NMR

erre ene a

0 1
  C      145.791     201.132      20.763
  O      145.887     201.112      22.172
  H      145.376     202.084      20.422
  H      146.792     201.010      20.341
  H      145.161     200.306      20.418
  P      144.529     201.382      22.982
  C      144.066     201.438      25.531
  O      144.760     200.810      24.464
  C      143.796     200.434      26.645
  O      143.074     199.297      26.128
  C      145.045     199.854      27.298
  O      145.618     200.751      28.240
  C      144.460     198.625      27.980
  O      143.832     199.009      29.217
  C      143.396     198.161      26.973
  N      144.261     193.106      26.739
  C      143.828     193.901      27.743
  N      143.633     195.234      27.738
  C      143.917     195.754      26.532
  C      144.367     195.070      25.416
  C      144.547     193.683      25.549
  N      145.005     192.885      24.524
  N      144.538     195.931      24.353
  C      144.199     197.116      24.818
  N      143.822     197.061      26.134
  O      143.496     200.338      22.340
  O      144.008     202.779      22.908
  H      144.539     199.360      29.792
  H      142.610     200.744      22.314
  H      143.604     193.395      28.679
  H      144.205     198.032      24.241
  H      142.468     197.868      27.476
  H      145.210     197.866      28.215
  H      145.775     199.537      26.548
  H      143.158     200.924      27.392
  H      143.114     201.832      25.164
  H      144.925     191.887      24.616
  H      145.208     193.327      23.633
  H      144.674     202.269      25.906
  P      147.052     200.364      28.851
  C      148.575     201.705      30.466
  O      147.694     201.747      29.351
  O      147.914     200.006      27.551
  O      147.041     199.247      29.837
  H      148.640     199.397      27.791
  H      148.922     202.693      30.683
  H      149.410     201.076      30.238
  H      148.056     201.314      31.316

 6  7  8  9  10  11  12  13  14  15  25  28  32  33  34  35 0
 6-311+G(2d,p)
 ****
 36  39  40 0
 6-311+G(2d,p)
 ****
 1  2  3  4  5  16  17  18  19  20  21  22  23  24 0
 3-21G
 ****
 26  27  29  30  31  37  38  41  42  43  44  45  46  47  48 0
 3-21G
 ****


