%nproc=1
%NoSave
%Mem=1900MB
#P OB98/GEN NMR

erre ene a

0 1
  C     -414.736    -598.242     463.990
  O     -415.415    -598.599     465.178
  H     -415.000    -598.966     463.211
  H     -413.658    -598.286     464.162
  H     -415.019    -597.241     463.652
  P     -415.577    -597.501     466.332
  C     -415.182    -599.524     467.883
  O     -415.844    -598.276     467.712
  C     -416.062    -600.541     468.623
  O     -416.142    -600.194     470.021
  C     -417.508    -600.550     468.105
  O     -417.729    -601.355     466.964
  C     -418.263    -601.081     469.316
  O     -418.250    -602.521     469.331
  C     -417.459    -600.530     470.496
  N     -420.791    -598.735     473.939
  C     -420.519    -600.047     473.592
  N     -421.270    -600.999     474.193
  N     -419.609    -600.392     472.716
  C     -419.000    -599.326     472.126
  C     -419.194    -597.986     472.374
  C     -420.167    -597.625     473.383
  O     -420.457    -596.479     473.728
  N     -418.391    -597.213     471.579
  C     -417.775    -598.070     470.800
  N     -418.095    -599.371     471.110
  O     -417.006    -596.836     466.024
  O     -414.497    -596.460     466.377
  H     -418.648    -602.823     470.168
  H     -417.030    -595.925     466.372
  H     -421.485    -598.536     474.642
  H     -417.065    -597.801     470.014
  H     -417.336    -601.278     471.286
  H     -419.315    -600.774     469.304
  H     -422.059    -600.778     474.784
  H     -417.845    -599.524     467.918
  H     -421.281    -601.922     473.774
  H     -415.602    -601.526     468.565
  H     -414.280    -599.327     468.456
  H     -414.876    -599.929     466.916
  P     -417.963    -600.659     465.538
  C     -420.421    -601.526     465.529
  O     -419.195    -601.431     464.842
  O     -416.693    -601.148     464.699
  O     -418.084    -599.183     465.564
  H     -416.000    -600.464     464.710
  H     -421.125    -602.065     464.930
  H     -420.798    -600.544     465.724
  H     -420.272    -602.041     466.455

 6  7  8  9  10  11  12  13  14  15  26  29  33  34 0
 6-311+G(2d,p)
 ****
 36  38  39  40  41 0
 6-311+G(2d,p)
 ****
 1  2  3  4  5  16  17  18  19  20  21  22  23  24  25 0
 3-21G
 ****
 27  28  30  31  32  35  37  42  43  44  45  46  47 0
 3-21G
 ****
 48  49 0
 3-21G
 ****


