%nproc=1
%NoSave
%Mem=1900MB
#P OB98/GEN NMR

erre ene a

0 1
  C     2150.152     -26.475     991.725
  O     2151.381     -25.924     991.303
  H     2149.838     -27.212     990.981
  H     2149.381     -25.697     991.782
  H     2150.263     -26.965     992.686
  P     2152.006     -24.765     992.228
  C     2154.038     -26.095     993.079
  O     2152.769     -25.551     993.409
  C     2154.939     -26.097     994.321
  O     2155.125     -24.727     994.771
  C     2154.380     -26.878     995.508
  O     2155.461     -27.514     996.219
  C     2153.801     -25.823     996.401
  O     2153.668     -26.230     997.757
  C     2154.764     -24.667     996.141
  N     2153.942     -21.314     999.911
  C     2154.712     -22.439     999.818
  N     2154.888     -23.253     998.774
  C     2154.219     -22.791     997.695
  C     2153.414     -21.672     997.617
  C     2153.255     -20.906     998.797
  N     2152.448     -19.812     998.901
  N     2152.857     -21.564     996.337
  C     2153.350     -22.613     995.667
  N     2154.154     -23.384     996.462
  O     2151.047     -23.720     992.690
  O     2153.221     -24.238     991.330
  H     2153.199     -25.500     998.225
  H     2153.742     -24.968     990.961
  H     2155.249     -22.708    1000.729
  H     2153.134     -22.827     994.634
  H     2155.675     -24.751     996.764
  H     2152.771     -25.560     996.046
  H     2153.628     -27.645     995.213
  H     2155.941     -26.479     994.015
  H     2154.509     -25.538     992.284
  H     2152.423     -19.343     999.785
  H     2151.938     -19.492     998.088
  H     2153.894     -27.135     992.730
  P     2155.544     -29.131     996.202
  C     2157.932     -29.484     995.276
  O     2156.523     -29.599     995.009
  O     2154.241     -29.847     996.206
  O     2156.417     -29.475     997.500
  H     2155.998     -30.223     997.970
  H     2158.485     -29.819     994.424
  H     2158.185     -30.085     996.124
  H     2158.174     -28.462     995.479

 6  7  8  9  10  11  12  13  14  15  25  28  32  33  34  35 0
 6-311+G(2d,p)
 ****
 36  39  40 0
 6-311+G(2d,p)
 ****
 1  2  3  4  5  16  17  18  19  20  21  22  23  24 0
 3-21G
 ****
 26  27  29  30  31  37  38  41  42  43  44  45  46  47 0
 3-21G
 ****
 48 0
 3-21G
 ****


