%nproc=1
%NoSave
%Mem=1900MB
#P OB98/GEN NMR

erre ene a

0 1
  C      -47.326    -499.793     583.046
  O      -46.346    -499.368     582.130
  P      -46.250    -497.824     581.696
  C      -46.257    -498.396     579.189
  O      -46.933    -497.719     580.243
  C      -46.839    -497.967     577.834
  O      -48.243    -498.332     577.740
  C      -46.819    -496.462     577.608
  O      -45.552    -495.851     577.469
  C      -47.775    -496.339     576.424
  O      -47.131    -496.651     575.187
  C      -48.829    -497.426     576.768
  N      -50.078    -496.833     577.268
  C      -50.857    -496.190     576.309
  O      -50.556    -496.094     575.126
  N      -52.003    -495.606     576.780
  C      -52.417    -495.573     578.088
  O      -53.434    -495.003     578.446
  C      -51.537    -496.268     579.056
  C      -50.419    -496.854     578.599
  O      -44.889    -497.220     581.789
  O      -47.345    -497.114     582.635
  H      -47.813    -496.600     574.484
  H      -48.254    -497.446     582.519
  H      -52.579    -495.120     576.121
  H      -51.839    -496.270     580.086
  H      -49.754    -497.368     579.295
  H      -49.058    -498.021     575.872
  H      -48.175    -495.324     576.337
  H      -47.300    -495.980     578.458
  H      -46.308    -498.510     577.044
  H      -46.392    -499.478     579.310
  H      -45.179    -498.185     579.236
  P      -45.324    -494.275     577.686
  C      -44.816    -493.707     575.194
  O      -45.677    -493.524     576.307
  O      -44.062    -493.869     578.385
  O      -46.581    -493.876     578.603
  H      -46.323    -493.140     579.195
  H      -45.182    -493.101     574.374
  H      -44.829    -494.764     574.884
  H      -43.800    -493.393     575.440
  H      -47.230    -500.846     583.207
  H      -48.298    -499.579     582.653
  H      -47.195    -499.277     583.974

 3  4  5  6  7  8  9  10  11  12  13  23  28  29  30  31  32 0
 6-311+G(2d,p)
 ****
 33  34 0
 6-311+G(2d,p)
 ****
 1  2  14  15  16  17  18  19  20  21  22  24  25  26  27 0
 3-21G
 ****
 35  36  37  38  39  40  41  42  43  44  45 0
 3-21G
 ****


