%nproc=1
%NoSave
%Mem=1900MB
#P OB98/GEN NMR

erre ene a

0 1
  C      593.051      57.772    1123.671
  O      594.118      56.902    1123.342
  P      593.756      55.414    1122.859
  C      593.918      55.979    1120.286
  O      593.118      55.577    1121.392
  C      594.230      54.769    1119.404
  O      593.035      54.017    1119.139
  C      594.813      55.118    1118.037
  O      596.178      55.487    1118.115
  C      594.538      53.840    1117.257
  O      595.528      52.840    1117.560
  C      593.173      53.412    1117.843
  N      592.038      53.752    1116.970
  C      591.500      52.701    1116.236
  O      591.930      51.534    1116.284
  N      590.457      53.027    1115.406
  C      589.961      54.293    1115.190
  O      589.057      54.528    1114.410
  C      590.591      55.349    1115.979
  C      591.591      55.044    1116.819
  O      592.499      55.080    1123.809
  O      594.899      54.455    1122.968
  H      592.030      55.903    1124.079
  H      596.397      53.226    1117.354
  H      590.031      52.287    1114.875
  H      590.233      56.362    1115.846
  H      592.073      55.824    1117.380
  H      593.149      52.320    1118.009
  H      594.534      53.989    1116.181
  H      594.229      55.949    1117.592
  H      594.931      54.104    1119.949
  H      594.853      56.412    1120.656
  H      593.374      56.733    1119.714
  P      596.786      56.263    1116.835
  C      597.626      58.390    1118.110
  O      596.719      57.843    1117.193
  O      595.635      56.035    1115.752
  O      598.145      55.761    1116.430
  H      594.741      56.154    1116.132
  H      597.646      59.468    1117.952
  H      598.628      57.980    1117.965
  H      597.297      58.196    1119.134
  H      593.444      58.720    1123.973
  H      592.481      57.350    1124.473
  H      592.421      57.903    1122.816

 3  4  5  6  7  8  9  10  11  12  13  24  28  29  30  31  32 0
 6-311+G(2d,p)
 ****
 33  34 0
 6-311+G(2d,p)
 ****
 1  2  14  15  16  17  18  19  20  21  22  23  25  26  27 0
 3-21G
 ****
 35  36  37  38  39  40  41  42  43  44  45 0
 3-21G
 ****


