%nproc=1
%NoSave
%Mem=1900MB
#P OB98/GEN NMR

erre ene a

0 1
  C      771.360     795.309      69.265
  O      772.566     795.666      69.959
  P      772.637     795.786      71.551
  C      774.435     797.596      71.940
  O      774.122     796.199      71.974
  C      775.931     797.841      71.714
  O      776.725     797.178      72.717
  C      776.469     797.329      70.377
  O      776.141     798.231      69.338
  C      777.955     797.222      70.672
  O      778.604     798.508      70.572
  C      777.954     796.751      72.145
  N      781.126     792.953      73.553
  C      781.252     794.306      73.565
  N      780.367     795.250      73.166
  C      779.238     794.680      72.736
  C      778.945     793.321      72.648
  C      779.954     792.433      73.080
  N      779.816     791.060      73.052
  N      777.677     793.106      72.130
  C      777.198     794.322      71.935
  N      778.102     795.304      72.264
  O      772.098     794.595      72.287
  O      771.774     797.109      71.901
  H      778.069     799.149      71.093
  H      771.401     797.022      72.784
  H      782.205     794.680      73.942
  H      776.222     794.534      71.533
  H      778.770     797.200      72.722
  H      778.490     796.542      69.991
  H      776.071     796.345      70.162
  H      776.121     798.921      71.814
  H      774.120     798.036      72.890
  H      780.600     790.497      73.336
  H      778.968     790.663      72.646
  H      773.861     798.065      71.124
  P      775.550     797.685      67.953
  C      776.552     798.815      65.855
  O      775.579     798.901      66.911
  O      774.257     796.961      68.046
  O      776.714     796.726      67.400
  H      776.313     796.003      66.866
  H      777.527     799.121      66.254
  H      776.256     799.507      65.062
  H      776.603     797.805      65.467
  H      771.547     795.290      68.212
  H      770.599     796.029      69.479
  H      771.036     794.341      69.587

 3  4  5  6  7  8  9  10  11  12  22  25  29  30  31  32 0
 6-311+G(2d,p)
 ****
 33  36  37 0
 6-311+G(2d,p)
 ****
 1  2  13  14  15  16  17  18  19  20  21  23  24  26 0
 3-21G
 ****
 27  28  34  35  38  39  40  41  42  43  44  45  46  47  48 0
 3-21G
 ****


