%nproc=1
%NoSave
%Mem=1900MB
#P OB98/GEN NMR

erre ene a

0 1
  C       23.137    -207.318     -68.550
  O       23.712    -207.491     -67.270
  H       22.205    -206.758     -68.444
  H       22.915    -208.289     -68.999
  H       23.817    -206.755     -69.195
  P       25.067    -208.344     -67.193
  C       26.495    -206.254     -67.774
  O       26.140    -207.587     -68.114
  C       27.901    -206.235     -67.183
  O       28.802    -206.977     -68.034
  C       28.507    -204.843     -67.066
  O       28.009    -204.131     -65.948
  C       29.983    -205.182     -66.940
  O       30.336    -205.499     -65.585
  C       30.120    -206.420     -67.853
  N       30.758    -206.097     -69.124
  C       31.921    -205.337     -69.041
  O       32.399    -204.951     -67.974
  N       32.503    -205.002     -70.232
  C       32.025    -205.310     -71.471
  O       32.555    -204.916     -72.502
  C       30.800    -206.128     -71.498
  C       30.225    -206.470     -70.342
  O       24.712    -209.663     -68.026
  O       25.538    -208.660     -65.812
  H       24.534    -210.405     -67.418
  H       30.257    -204.665     -65.080
  H       33.340    -204.441     -70.193
  H       30.396    -206.397     -72.468
  H       29.310    -207.054     -70.338
  H       30.723    -207.193     -67.359
  H       30.613    -204.346     -67.243
  H       28.351    -204.283     -67.996
  H       27.872    -206.727     -66.201
  H       25.790    -205.866     -67.032
  H       26.440    -205.630     -68.673
  P       28.164    -202.535     -65.926
  C       25.954    -201.857     -67.174
  O       27.364    -201.980     -67.200
  O       29.701    -202.369     -66.326
  O       27.779    -201.914     -64.627
  H       30.002    -203.033     -66.971
  H       25.612    -201.472     -68.112
  H       25.669    -201.189     -66.389
  H       25.515    -202.818     -67.002

 6  7  8  9  10  11  12  13  14  15  16  27  31  32  33  34  35 0
 6-311+G(2d,p)
 ****
 36  37 0
 6-311+G(2d,p)
 ****
 1  2  3  4  5  17  18  19  20  21  22  23  24  25 0
 3-21G
 ****
 26  28  29  30  38  39  40  41  42  43  44  45 0
 3-21G
 ****


