%nproc=1
%NoSave
%Mem=1900MB
#P OB98/GEN NMR

erre ene a

0 1
  C       68.059     247.904     -70.722
  O       66.658     247.773     -70.858
  H       68.394     247.355     -69.840
  H       68.540     247.476     -71.606
  H       68.346     248.956     -70.640
  P       65.741     248.595     -69.830
  C       64.814     246.381     -68.842
  O       65.467     247.615     -68.585
  C       64.268     245.785     -67.545
  O       65.388     245.300     -66.752
  C       63.474     246.776     -66.680
  O       62.365     246.082     -66.098
  C       64.456     247.143     -65.582
  O       63.812     247.572     -64.387
  C       65.233     245.840     -65.427
  N       67.457     247.557     -61.189
  C       66.190     247.174     -61.450
  N       65.690     246.675     -62.600
  C       66.664     246.523     -63.515
  C       68.000     246.863     -63.392
  C       68.388     247.423     -62.163
  N       69.662     247.881     -61.909
  N       68.672     246.609     -64.572
  C       67.752     246.149     -65.399
  N       66.522     246.082     -64.804
  O       64.330     248.641     -70.589
  O       66.230     249.959     -69.477
  H       64.486     247.695     -63.690
  H       64.303     249.416     -71.180
  H       65.480     247.291     -60.635
  H       67.913     245.883     -66.434
  H       64.702     245.102     -64.812
  H       65.108     247.953     -65.930
  H       63.113     247.653     -67.228
  H       63.652     244.913     -67.796
  H       65.534     245.681     -69.279
  H       69.820     248.365     -61.039
  H       70.337     247.888     -62.660
  H       64.002     246.543     -69.558
  P       60.895     246.503     -66.582
  C       59.962     248.139     -64.784
  O       60.588     247.983     -66.053
  O       59.938     245.583     -65.686
  O       60.656     246.288     -68.041
  H       59.133     245.351     -66.181
  H       59.827     249.180     -64.578
  H       60.578     247.702     -64.026
  H       59.010     247.651     -64.794

 6  7  8  9  10  11  12  13  14  15  25  28  32  33  34  35 0
 6-311+G(2d,p)
 ****
 36  39  40 0
 6-311+G(2d,p)
 ****
 1  2  3  4  5  16  17  18  19  20  21  22  23  24 0
 3-21G
 ****
 26  27  29  30  31  37  38  41  42  43  44  45  46  47 0
 3-21G
 ****
 48 0
 3-21G
 ****


