%nproc=1
%NoSave
%Mem=1900MB
#P OB98/GEN NMR

erre ene a

0 1
  C      230.670     291.618    -710.420
  O      230.004     292.856    -710.517
  H      231.485     291.712    -709.696
  H      231.092     291.339    -711.389
  H      229.983     290.840    -710.076
  P      228.744     292.935    -711.513
  C      227.170     293.716    -709.594
  O      227.459     292.725    -710.572
  C      226.068     293.229    -708.649
  O      224.911     292.844    -709.427
  C      226.485     292.025    -707.802
  O      226.025     292.209    -706.464
  C      225.780     290.850    -708.456
  O      225.542     289.785    -707.538
  C      224.526     291.511    -709.038
  N      223.989     290.761    -710.168
  C      222.630     290.436    -710.120
  O      221.946     290.769    -709.150
  N      222.085     289.699    -711.141
  C      222.845     289.265    -712.093
  N      222.251     288.520    -713.067
  C      224.295     289.542    -712.164
  C      224.789     290.294    -711.182
  O      228.846     291.564    -712.329
  O      228.693     294.154    -712.377
  H      224.897     290.102    -706.870
  H      228.260     291.572    -713.123
  H      224.890     289.147    -712.973
  H      225.847     290.544    -711.151
  H      223.744     291.599    -708.270
  H      226.407     290.458    -709.268
  H      227.562     291.871    -707.788
  H      225.756     294.070    -708.017
  H      221.259     288.343    -712.980
  H      226.843     294.630    -710.102
  H      222.751     288.108    -713.841
  H      228.076     293.930    -709.019
  P      227.133     292.685    -705.401
  C      226.297     294.994    -704.577
  O      227.179     294.290    -705.436
  O      228.513     292.247    -706.081
  O      226.953     292.090    -704.044
  H      228.834     291.408    -705.695
  H      226.437     296.047    -704.707
  H      226.502     294.729    -703.561
  H      225.286     294.737    -704.815

 6  7  8  9  10  11  12  13  14  15  16  26  30  31  32  33  35 0
 6-311+G(2d,p)
 ****
 37  38 0
 6-311+G(2d,p)
 ****
 1  2  3  4  5  17  18  19  20  21  22  23  24  25 0
 3-21G
 ****
 27  28  29  34  36  39  40  41  42  43  44  45  46 0
 3-21G
 ****


