%nproc=1
%NoSave
%Mem=1900MB
#P OB98/GEN NMR

erre ene a

0 1
  C     -103.166     282.724    -105.038
  O     -102.937     283.994    -105.619
  H     -102.322     282.058    -105.240
  H     -103.264     282.849    -103.956
  H     -104.090     282.289    -105.428
  P     -102.793     284.032    -107.219
  C     -100.419     285.064    -107.027
  O     -101.218     284.000    -107.527
  C     -100.338     286.187    -108.060
  O      -99.534     287.271    -107.551
  C      -99.699     285.789    -109.386
  O     -100.614     285.099    -110.228
  C      -99.345     287.157    -109.952
  O     -100.519     287.771    -110.515
  C      -98.906     287.921    -108.690
  N      -94.702     290.838    -108.555
  C      -96.008     291.145    -108.705
  N      -97.073     290.316    -108.711
  C      -96.682     289.045    -108.518
  C      -95.391     288.579    -108.327
  C      -94.366     289.537    -108.357
  N      -93.021     289.202    -108.272
  N      -95.382     287.205    -108.178
  C      -96.647     286.847    -108.294
  N      -97.470     287.924    -108.493
  O     -103.225     285.535    -107.576
  O     -103.619     283.030    -107.955
  H     -100.969     287.082    -111.039
  H     -104.162     285.544    -107.847
  H      -96.232     292.199    -108.848
  H      -97.007     285.828    -108.245
  H      -99.245     288.960    -108.698
  H      -98.588     287.112    -110.743
  H      -98.779     285.214    -109.235
  H     -101.355     286.575    -108.217
  H      -99.410     284.696    -106.817
  H      -92.407     289.854    -108.756
  H      -92.829     288.215    -108.392
  H     -100.865     285.434    -106.101
  P     -100.096     283.774    -110.971
  C      -99.599     285.035    -113.178
  O      -99.069     284.262    -112.109
  O     -101.384     283.304    -111.796
  O      -99.602     282.693    -110.073
  H     -101.611     282.385    -111.556
  H      -98.813     285.290    -113.858
  H     -100.038     285.930    -112.788
  H     -100.345     284.467    -113.693

 6  7  8  9  10  11  12  13  14  15  25  28  32  33  34  35 0
 6-311+G(2d,p)
 ****
 36  39  40 0
 6-311+G(2d,p)
 ****
 1  2  3  4  5  16  17  18  19  20  21  22  23  24 0
 3-21G
 ****
 26  27  29  30  31  37  38  41  42  43  44  45  46  47  48 0
 3-21G
 ****


