%nproc=1
%NoSave
%Mem=1900MB
#P OB98/GEN NMR

erre ene a

0 1
  C      218.785    -415.475    -266.625
  O      219.482    -414.254    -266.367
  P      219.580    -413.719    -264.864
  C      221.933    -414.653    -264.388
  O      220.550    -414.701    -264.044
  C      222.786    -414.264    -263.174
  O      222.649    -415.221    -262.103
  C      224.270    -414.200    -263.479
  O      224.576    -413.043    -264.229
  C      224.861    -414.257    -262.086
  O      224.856    -412.963    -261.472
  C      223.884    -415.200    -261.348
  N      224.412    -416.542    -261.151
  C      224.396    -417.018    -259.832
  O      223.985    -416.306    -258.920
  N      224.856    -418.288    -259.592
  C      225.297    -419.018    -260.567
  N      225.739    -420.263    -260.267
  C      225.341    -418.538    -261.965
  C      224.897    -417.305    -262.185
  O      218.280    -413.411    -264.202
  O      220.472    -412.392    -265.014
  H      225.272    -413.066    -260.593
  H      220.215    -411.754    -264.318
  H      225.723    -419.188    -262.748
  H      224.897    -416.888    -263.174
  H      223.630    -414.797    -260.363
  H      225.908    -414.600    -262.090
  H      224.574    -415.098    -264.047
  H      222.436    -413.286    -262.816
  H      225.703    -420.550    -259.294
  H      222.079    -413.930    -265.196
  H      226.061    -420.932    -260.963
  H      222.234    -415.636    -264.781
  P      226.033    -412.945    -264.907
  C      225.162    -413.264    -267.334
  O      225.973    -413.766    -266.287
  O      226.925    -413.888    -263.966
  O      226.611    -411.572    -264.999
  H      227.834    -413.533    -263.913
  H      225.477    -413.726    -268.274
  H      225.271    -412.178    -267.428
  H      224.115    -413.512    -267.146
  H      218.814    -415.687    -267.673
  H      217.768    -415.379    -266.308
  H      219.252    -416.273    -266.087

 3  4  5  6  7  8  9  10  11  12  13  23  27  28  29  30  32 0
 6-311+G(2d,p)
 ****
 34  35 0
 6-311+G(2d,p)
 ****
 1  2  14  15  16  17  18  19  20  21  22  24  25  26 0
 3-21G
 ****
 31  33  36  37  38  39  40  41  42  43  44  45  46 0
 3-21G
 ****


