%nproc=1
%NoSave
%Mem=1900MB
#P OB98/GEN NMR

erre ene a

0 1
  C      101.163     448.874    -280.412
  O      100.008     449.120    -281.180
  H      101.891     448.335    -281.029
  H      100.913     448.250    -279.541
  H      101.624     449.806    -280.079
  P       98.866     450.071    -280.580
  C       97.072     449.720    -278.759
  O       98.383     449.414    -279.202
  C       96.923     449.427    -277.267
  O       96.976     447.990    -277.027
  C       98.040     450.019    -276.412
  O       97.852     451.412    -276.236
  C       97.899     449.182    -275.140
  O       96.824     449.681    -274.321
  C       97.554     447.800    -275.721
  N       98.722     446.892    -275.800
  C       99.171     446.376    -274.581
  O       98.670     446.654    -273.502
  N      100.244     445.508    -274.679
  C      100.939     445.208    -275.812
  O      101.916     444.470    -275.837
  C      100.428     445.830    -277.050
  C       99.368     446.629    -276.989
  O       97.763     450.443    -281.519
  O       99.673     451.374    -280.096
  H       96.003     449.457    -274.789
  H       99.584     452.088    -280.753
  H      100.593     445.125    -273.813
  H      100.963     445.614    -277.975
  H       98.990     447.093    -277.897
  H       96.798     447.301    -275.113
  H       98.802     449.209    -274.520
  H       99.020     449.811    -276.862
  H       95.948     449.788    -276.932
  H       96.351     449.089    -279.315
  H       96.851     450.776    -278.972
  P       99.107     452.384    -275.985
  C       99.812     454.060    -274.184
  O       98.999     452.937    -274.481
  O       99.306     453.447    -277.036
  O      100.367     451.388    -275.933
  H      100.891     451.454    -276.749
  H       99.666     454.346    -273.163
  H       99.544     454.874    -274.825
  H      100.840     453.807    -274.340

 6  7  8  9  10  11  12  13  14  15  16  26  31  32  33  34  35 0
 6-311+G(2d,p)
 ****
 36  37 0
 6-311+G(2d,p)
 ****
 1  2  3  4  5  17  18  19  20  21  22  23  24  25 0
 3-21G
 ****
 27  28  29  30  38  39  40  41  42  43  44  45 0
 3-21G
 ****


