%nproc=1
%NoSave
%Mem=1900MB
#P OB98/GEN NMR

erre ene a

0 1
  C       89.042      63.241     425.271
  O       90.316      63.622     424.764
  P       90.791      65.136     425.046
  C       90.146      65.466     422.534
  O       90.216      66.021     423.838
  C       89.956      66.587     421.504
  O       88.561      66.968     421.439
  C       90.727      67.860     421.812
  O       92.071      67.741     421.386
  C       89.928      68.898     421.040
  O       90.284      68.890     419.640
  C       88.486      68.404     421.241
  N       85.173      71.986     422.572
  C       85.776      71.742     421.347
  N       85.410      72.551     420.318
  N       86.656      70.797     421.150
  C       86.937      70.090     422.266
  C       86.411      70.241     423.536
  C       85.403      71.248     423.726
  O       84.771      71.447     424.760
  N       86.960      69.344     424.417
  C       87.783      68.625     423.681
  N       87.786      69.027     422.349
  O       92.375      65.071     424.777
  O       90.465      65.658     426.415
  H       89.781      69.577     419.171
  H       92.859      64.982     425.616
  H       84.485      72.717     422.658
  H       88.374      67.797     424.037
  H       87.855      68.568     420.347
  H       90.100      69.916     421.403
  H       84.750      73.308     420.411
  H       90.682      68.085     422.890
  H       85.845      72.384     419.425
  H       90.236      66.189     420.519
  H       89.302      64.773     422.478
  H       91.079      64.908     422.328
  P       93.108      68.874     421.863
  C       93.434      69.865     419.477
  O       93.009      70.074     420.814
  O       94.535      68.220     421.559
  O       92.973      69.264     423.305
  H       95.169      68.486     422.255
  H       92.848      70.507     418.809
  H       93.298      68.815     419.175
  H       94.497      70.127     419.395
  H       88.848      62.220     425.017
  H       88.286      63.865     424.842
  H       89.034      63.352     426.335

 3  4  5  6  7  8  9  10  11  12  23  26  30  31 0
 6-311+G(2d,p)
 ****
 33  35  36  37  38 0
 6-311+G(2d,p)
 ****
 1  2  13  14  15  16  17  18  19  20  21  22  24  25 0
 3-21G
 ****
 27  28  29  32  34  39  40  41  42  43  44  45  46  47  48  49 0
 3-21G
 ****


