%nproc=1
%NoSave
%Mem=1900MB
#P OB98/GEN NMR

erre ene a

0 1
  C     -406.994      56.977      15.184
  O     -406.668      58.064      16.030
  P     -406.166      57.721      17.515
  C     -403.625      57.831      16.963
  O     -404.727      58.409      17.661
  C     -402.491      58.843      16.823
  O     -402.837      59.841      15.840
  C     -402.190      59.613      18.098
  O     -401.439      58.814      18.992
  C     -401.427      60.811      17.553
  O     -400.027      60.515      17.417
  C     -402.081      61.029      16.171
  N     -402.921      62.218      16.125
  C     -402.599      63.148      15.128
  O     -401.647      62.945      14.372
  N     -403.339      64.303      15.042
  C     -404.307      64.509      15.880
  N     -405.012      65.665      15.747
  C     -404.662      63.561      16.958
  C     -403.932      62.451      17.024
  O     -405.826      56.158      17.433
  O     -407.149      58.033      18.595
  H     -399.636      61.283      16.951
  H     -405.910      55.740      18.308
  H     -405.480      63.783      17.629
  H     -404.124      61.703      17.786
  H     -401.311      61.127      15.395
  H     -401.503      61.681      18.212
  H     -403.119      59.951      18.575
  H     -401.596      58.312      16.473
  H     -404.739      66.298      15.004
  H     -403.951      57.528      15.963
  H     -405.799      65.910      16.333
  H     -403.289      56.942      17.505
  P     -401.103      59.433      20.435
  C     -402.426      57.483      21.450
  O     -401.202      58.195      21.446
  O     -402.436      60.252      20.771
  O     -399.877      60.278      20.542
  H     -402.316      60.764      21.596
  H     -402.309      56.582      22.057
  H     -402.702      57.191      20.433
  H     -403.216      58.105      21.889
  H     -407.311      57.349      14.232
  H     -407.784      56.406      15.625
  H     -406.133      56.355      15.055

 3  4  5  6  7  8  9  10  11  12  13  21  23  27  28  29  30  32 0
 6-311+G(2d,p)
 ****
 34  35 0
 6-311+G(2d,p)
 ****
 1  2  14  15  16  17  18  19  20  22  24  25  26 0
 3-21G
 ****
 31  33  36  37  38  39  40  41  42  43  44  45  46 0
 3-21G
 ****


