%nproc=1
%NoSave
%Mem=1900MB
#P OB98/GEN NMR

erre ene a

0 1
  C       91.925     -21.872      44.855
  O       91.419     -21.657      43.554
  H       92.769     -21.198      45.020
  H       92.270     -22.904      44.963
  H       91.151     -21.660      45.598
  P       90.238     -22.635      43.074
  C       91.608     -24.663      42.171
  O       90.872     -24.102      43.247
  C       91.260     -26.139      42.013
  O       91.441     -26.842      43.264
  C       89.813     -26.409      41.608
  O       89.564     -26.184      40.231
  C       89.711     -27.880      41.968
  O       90.409     -28.667      40.985
  C       90.447     -27.901      43.325
  N       89.550     -27.699      44.466
  C       88.810     -28.810      44.887
  O       88.920     -29.892      44.315
  N       87.931     -28.659      45.932
  C       87.814     -27.510      46.521
  N       86.926     -27.423      47.547
  C       88.581     -26.318      46.119
  C       89.420     -26.481      45.098
  O       90.223     -22.447      41.485
  O       88.916     -22.439      43.734
  H       90.244     -29.601      41.209
  H       89.626     -23.117      41.071
  H       88.441     -25.377      46.631
  H       90.020     -25.649      44.747
  H       90.984     -28.846      43.467
  H       88.687     -28.248      42.000
  H       89.109     -25.844      42.229
  H       91.962     -26.572      41.291
  H       86.371     -28.241      47.760
  H       92.675     -24.549      42.389
  H       86.655     -26.543      47.966
  H       91.376     -24.135      41.242
  P       88.064     -25.792      39.810
  C       87.232     -28.098      38.934
  O       87.177     -27.118      39.962
  O       88.170     -25.597      38.227
  O       87.517     -24.576      40.490
  H       87.565     -24.894      37.921
  H       86.588     -28.915      39.185
  H       88.236     -28.454      38.834
  H       86.914     -27.663      38.010

 6  7  8  9  10  11  12  13  14  15  16  26  30  31  32  33  35 0
 6-311+G(2d,p)
 ****
 37  38 0
 6-311+G(2d,p)
 ****
 1  2  3  4  5  17  18  19  20  21  22  23  24  25 0
 3-21G
 ****
 27  28  29  34  36  39  40  41  42  43  44  45  46 0
 3-21G
 ****


