%nproc=1
%NoSave
%Mem=1900MB
#P OB98/GEN NMR

erre ene a

0 1
  C     -418.941     232.903     273.686
  O     -419.415     231.603     273.405
  P     -418.595     230.304     273.858
  C     -416.383     230.945     272.728
  O     -417.462     230.020     272.757
  C     -415.120     230.314     272.135
  O     -414.043     231.285     272.158
  C     -414.642     229.061     272.884
  O     -414.151     228.142     271.894
  C     -413.501     229.582     273.735
  O     -412.595     228.562     274.118
  C     -412.918     230.656     272.804
  N     -412.105     231.627     273.518
  C     -410.856     231.940     272.963
  O     -410.437     231.309     271.993
  N     -410.120     232.952     273.536
  C     -410.504     233.461     274.666
  N     -409.782     234.502     275.159
  C     -411.682     232.974     275.405
  C     -412.457     232.097     274.766
  O     -419.433     229.118     274.202
  O     -417.748     230.794     275.126
  H     -417.919     230.189     275.874
  H     -412.287     228.091     273.312
  H     -411.896     233.343     276.400
  H     -413.360     231.703     275.215
  H     -412.309     230.193     272.016
  H     -413.904     230.044     274.647
  H     -415.434     228.580     273.463
  H     -415.326     230.074     271.087
  H     -409.001     234.832     274.607
  H     -416.174     231.262     273.756
  H     -410.169     235.159     275.839
  H     -416.670     231.836     272.156
  P     -415.179     227.076     271.266
  C     -415.458     225.854     273.543
  O     -415.132     225.753     272.171
  O     -414.389     226.613     269.946
  O     -416.533     227.589     270.892
  H     -415.035     226.288     269.289
  H     -415.305     224.880     274.013
  H     -416.507     226.138     273.662
  H     -414.812     226.590     274.041
  H     -419.631     233.625     273.301
  H     -417.985     233.042     273.225
  H     -418.848     233.027     274.745

 3  4  5  6  7  8  9  10  11  12  13  24  27  28  29  30  32 0
 6-311+G(2d,p)
 ****
 34  35 0
 6-311+G(2d,p)
 ****
 1  2  14  15  16  17  18  19  20  21  22  23  25  26 0
 3-21G
 ****
 31  33  36  37  38  39  40  41  42  43  44  45  46 0
 3-21G
 ****


