%nproc=1
%NoSave
%Mem=1900MB
#P OB98/GEN NMR

erre ene a

0 1
  C      393.871    1202.964     212.440
  O      394.489    1203.822     211.473
  P      395.289    1205.116     211.965
  C      394.393    1206.794     210.220
  O      395.521    1206.097     210.713
  C      394.820    1207.942     209.271
  O      396.020    1208.582     209.780
  C      395.123    1207.445     207.846
  O      394.435    1208.187     206.838
  C      396.635    1207.472     207.773
  O      397.127    1207.578     206.448
  C      397.000    1208.606     208.731
  N      398.361    1208.471     209.246
  C      399.331    1209.275     208.659
  O      399.106    1210.013     207.688
  N      400.601    1209.158     209.175
  C      400.999    1208.286     210.138
  O      402.151    1208.185     210.541
  C      399.944    1207.417     210.697
  C      398.691    1207.547     210.222
  O      396.490    1204.859     212.803
  O      394.173    1205.926     212.806
  H      396.834    1208.453     206.074
  H      394.614    1206.312     213.585
  H      401.327    1209.746     208.773
  H      400.213    1206.696     211.438
  H      397.889    1206.919     210.597
  H      396.935    1209.583     208.234
  H      397.021    1206.525     208.189
  H      394.762    1206.409     207.694
  H      394.011    1208.670     209.259
  H      393.839    1207.220     211.057
  H      393.717    1206.088     209.734
  P      393.070    1207.736     206.132
  C      393.459    1208.109     203.593
  O      392.884    1208.601     204.799
  O      391.871    1207.675     207.021
  O      393.411    1206.269     205.577
  H      392.653    1205.676     205.714
  H      393.568    1208.945     202.908
  H      392.788    1207.376     203.154
  H      394.433    1207.672     203.769
  H      393.383    1202.154     211.938
  H      393.151    1203.521     213.002
  H      394.617    1202.576     213.101

 3  4  5  6  7  8  9  10  11  12  13  23  28  29  30  31  32 0
 6-311+G(2d,p)
 ****
 33  34 0
 6-311+G(2d,p)
 ****
 1  2  14  15  16  17  18  19  20  21  22  24  25  26  27 0
 3-21G
 ****
 35  36  37  38  39  40  41  42  43  44  45 0
 3-21G
 ****


