%nproc=1
%NoSave
%Mem=1900MB
#P OB98/GEN NMR

erre ene a

0 1
  C     -109.169    -169.679     415.230
  O     -108.178    -169.520     416.251
  P     -106.876    -170.459     416.174
  C     -107.473    -172.880     416.908
  O     -106.993    -171.599     417.300
  C     -107.913    -173.710     418.123
  O     -106.897    -173.686     419.159
  C     -109.213    -173.205     418.770
  O     -109.894    -174.331     419.348
  C     -108.705    -172.319     419.890
  O     -109.705    -172.091     420.878
  C     -107.492    -173.130     420.352
  N     -106.636    -170.681     424.678
  C     -107.754    -171.373     424.256
  N     -108.780    -171.460     425.127
  N     -107.853    -171.943     423.078
  C     -106.730    -171.809     422.326
  C     -105.569    -171.139     422.629
  C     -105.482    -170.498     423.927
  O     -104.523    -169.854     424.348
  N     -104.670    -171.200     421.598
  C     -105.292    -171.904     420.666
  N     -106.531    -172.323     421.075
  O     -105.713    -169.504     416.732
  O     -106.561    -170.945     414.796
  H     -109.380    -171.373     421.463
  H     -105.132    -169.238     416.002
  H     -106.617    -170.259     425.594
  H     -104.894    -172.134     419.689
  H     -107.778    -173.962     421.017
  H     -108.394    -171.349     419.485
  H     -108.747    -171.096     426.067
  H     -109.896    -172.685     418.090
  H     -109.592    -172.000     424.858
  H     -108.043    -174.751     417.808
  H     -106.700    -173.423     416.361
  H     -108.298    -172.744     416.204
  P     -111.185    -174.876     418.569
  C     -112.750    -173.711     420.288
  O     -112.372    -174.915     419.649
  O     -110.853    -176.420     418.321
  O     -111.498    -174.157     417.300
  H     -111.345    -176.753     417.548
  H     -113.684    -173.358     419.848
  H     -111.983    -172.936     420.190
  H     -112.915    -173.916     421.351
  H     -109.974    -168.996     415.405
  H     -109.542    -170.682     415.248
  H     -108.732    -169.478     414.274

 3  4  5  6  7  8  9  10  11  12  23  26  30  31 0
 6-311+G(2d,p)
 ****
 33  35  36  37  38 0
 6-311+G(2d,p)
 ****
 1  2  13  14  15  16  17  18  19  20  21  22  24  25 0
 3-21G
 ****
 27  28  29  32  34  39  40  41  42  43  44  45  46  47  48  49 0
 3-21G
 ****


