%nproc=1
%NoSave
%Mem=1900MB
#P OB98/GEN NMR

erre ene a

0 1
  C       80.160      90.470     -12.754
  O       81.574      90.493     -12.799
  H       79.778      90.324     -13.768
  H       79.780      91.419     -12.368
  H       79.814      89.644     -12.124
  P       82.329      90.723     -11.401
  C       83.875      92.326     -12.734
  O       83.124      92.111     -11.548
  C       83.731      93.769     -13.205
  O       82.335      94.126     -13.338
  C       84.356      94.801     -12.272
  O       85.751      94.924     -12.504
  C       83.585      96.056     -12.657
  O       84.117      96.658     -13.855
  C       82.173      95.502     -12.904
  N       79.494      98.570      -9.917
  C       80.215      98.846     -11.061
  N       80.274     100.144     -11.435
  N       80.831      97.938     -11.769
  C       80.713      96.690     -11.256
  C       80.013      96.286     -10.139
  C       79.310      97.302      -9.383
  O       78.601      97.111      -8.400
  N       80.115      94.931      -9.954
  C       80.904      94.522     -10.928
  N       81.306      95.556     -11.736
  O       83.499      89.628     -11.425
  O       81.478      90.591     -10.184
  H       83.605      97.457     -14.066
  H       83.690      89.347     -10.509
  H       79.028      99.312      -9.425
  H       81.211      93.499     -11.091
  H       81.652      96.039     -13.706
  H       83.637      96.818     -11.878
  H       80.115     100.894     -10.776
  H       84.149      94.554     -11.223
  H       80.821     100.357     -12.260
  H       84.177      93.837     -14.206
  H       83.504      91.654     -13.516
  H       84.928      92.098     -12.540
  P       86.742      94.527     -11.306
  C       87.459      97.024     -11.152
  O       86.995      95.868     -10.465
  O       88.142      94.291     -12.048
  O       86.316      93.335     -10.513
  H       88.745      93.785     -11.470
  H       87.578      97.829     -10.457
  H       86.748      97.302     -11.902
  H       88.400      96.810     -11.614

 6  7  8  9  10  11  12  13  14  15  26  29  33  34 0
 6-311+G(2d,p)
 ****
 36  38  39  40  41 0
 6-311+G(2d,p)
 ****
 1  2  3  4  5  16  17  18  19  20  21  22  23  24  25 0
 3-21G
 ****
 27  28  30  31  32  35  37  42  43  44  45  46  47 0
 3-21G
 ****
 48  49 0
 3-21G
 ****


