%nproc=1
%NoSave
%Mem=1900MB
#P OB98/GEN NMR

erre ene a

0 1
  C     -402.692      84.388    -210.191
  O     -402.398      83.372    -209.245
  P     -402.478      81.820    -209.643
  C     -400.238      81.169    -208.565
  O     -400.953      81.347    -209.783
  C     -399.028      82.102    -208.528
  O     -399.501      83.459    -208.359
  C     -398.048      81.875    -207.377
  O     -397.082      80.860    -207.614
  C     -397.350      83.229    -207.329
  O     -396.367      83.308    -208.377
  C     -398.503      84.196    -207.610
  N     -398.306      87.937    -204.126
  C     -397.590      87.708    -205.249
  N     -397.691      86.677    -206.117
  C     -398.682      85.847    -205.749
  C     -399.498      85.952    -204.635
  C     -399.282      87.059    -203.798
  N     -400.031      87.301    -202.665
  N     -400.387      84.894    -204.584
  C     -400.116      84.181    -205.654
  N     -399.101      84.719    -206.394
  O     -403.358      81.525    -210.809
  O     -402.957      81.093    -208.304
  H     -395.670      82.661    -208.163
  H     -403.288      80.196    -208.510
  H     -396.830      88.450    -205.483
  H     -400.626      83.270    -205.932
  H     -398.197      85.050    -208.226
  H     -396.825      83.403    -206.385
  H     -398.575      81.708    -206.428
  H     -398.516      82.040    -209.495
  H     -399.895      80.132    -208.516
  H     -399.890      88.182    -202.201
  H     -400.855      86.740    -202.513
  H     -400.903      81.354    -207.717
  P     -396.957      79.697    -206.512
  C     -397.274      77.393    -207.715
  O     -397.866      78.491    -207.053
  O     -397.234      80.131    -205.116
  O     -395.465      79.162    -206.733
  H     -395.306      78.711    -207.576
  H     -398.031      76.619    -207.855
  H     -396.453      76.976    -207.125
  H     -396.903      77.705    -208.695
  H     -402.581      85.347    -209.730
  H     -403.698      84.273    -210.537
  H     -402.019      84.310    -211.019

 3  4  5  6  7  8  9  10  11  12  22  25  29  30  31  32 0
 6-311+G(2d,p)
 ****
 33  36  37 0
 6-311+G(2d,p)
 ****
 1  2  13  14  15  16  17  18  19  20  21  23  24  26 0
 3-21G
 ****
 27  28  34  35  38  39  40  41  42  43  44  45  46  47  48 0
 3-21G
 ****


