%nproc=1
%NoSave
%Mem=1900MB
#P OB98/GEN NMR

erre ene a

0 1
  C      500.476     392.665    -142.047
  O      501.150     391.650    -142.763
  H      500.776     393.649    -142.413
  H      499.400     392.547    -142.196
  H      500.695     392.582    -140.978
  P      502.752     391.637    -142.668
  C      502.596     389.044    -142.781
  O      503.214     390.225    -143.279
  C      503.139     387.832    -143.528
  O      504.582     387.818    -143.473
  C      502.690     386.493    -142.955
  O      501.392     386.131    -143.391
  C      503.743     385.570    -143.547
  O      503.440     385.313    -144.930
  C      505.008     386.426    -143.428
  N      509.071     384.093    -141.368
  C      508.580     384.109    -142.626
  N      507.492     384.752    -143.093
  C      506.885     385.434    -142.108
  C      507.259     385.503    -140.775
  C      508.417     384.795    -140.412
  N      508.907     384.761    -139.124
  N      506.365     386.271    -140.058
  C      505.485     386.684    -140.947
  N      505.749     386.197    -142.201
  O      503.034     391.467    -141.102
  O      503.446     392.824    -143.246
  H      502.570     384.873    -144.950
  H      503.941     391.764    -140.891
  H      509.140     383.529    -143.353
  H      504.646     387.333    -140.737
  H      505.703     386.269    -144.261
  H      503.797     384.603    -143.045
  H      502.768     386.471    -141.860
  H      502.847     387.925    -144.582
  H      501.514     389.112    -142.935
  H      509.627     384.083    -138.934
  H      508.345     385.157    -138.386
  H      502.802     388.959    -141.711
  P      500.336     385.677    -142.271
  C      498.400     386.620    -143.724
  O      498.939     385.498    -143.029
  O      500.130     387.003    -141.402
  O      500.776     384.515    -141.435
  H      499.862     386.783    -140.490
  H      497.470     386.346    -144.176
  H      499.087     386.933    -144.482
  H      498.239     387.423    -143.035

 6  7  8  9  10  11  12  13  14  15  25  28  32  33  34  35 0
 6-311+G(2d,p)
 ****
 36  39  40 0
 6-311+G(2d,p)
 ****
 1  2  3  4  5  16  17  18  19  20  21  22  23  24 0
 3-21G
 ****
 26  27  29  30  31  37  38  41  42  43  44  45  46  47 0
 3-21G
 ****
 48 0
 3-21G
 ****


