%nproc=1
%NoSave
%Mem=1900MB
#P OB98/GEN NMR

erre ene a

0 1
  C     -177.989     -55.972      66.092
  O     -178.549     -55.832      67.400
  P     -179.846     -54.911      67.595
  C     -180.760     -55.866      69.805
  O     -180.138     -54.760      69.168
  C     -179.760     -57.014      70.004
  O     -178.523     -56.522      70.594
  C     -180.299     -58.108      70.935
  O     -179.802     -59.397      70.541
  C     -179.665     -57.756      72.267
  O     -179.639     -58.875      73.151
  C     -178.296     -57.263      71.809
  N     -174.927     -57.188      75.666
  C     -175.309     -58.173      74.826
  N     -176.193     -58.115      73.808
  C     -176.694     -56.874      73.688
  C     -176.394     -55.765      74.463
  C     -175.468     -55.956      75.502
  N     -175.104     -54.957      76.378
  N     -177.111     -54.664      74.042
  C     -177.866     -55.113      73.062
  N     -177.628     -56.432      72.787
  O     -181.031     -55.277      66.765
  O     -179.304     -53.451      67.207
  H     -180.508     -58.921      73.590
  H     -179.981     -52.991      66.670
  H     -174.844     -59.140      74.998
  H     -178.609     -54.533      72.533
  H     -177.623     -58.096      71.568
  H     -180.236     -56.954      72.750
  H     -181.389     -58.156      71.000
  H     -179.506     -57.433      69.025
  H     -181.608     -56.208      69.209
  H     -174.523     -55.217      77.161
  H     -175.608     -54.083      76.359
  H     -181.180     -55.535      70.763
  P     -180.677     -60.181      69.436
  C     -178.760     -61.371      68.116
  O     -179.818     -61.474      69.042
  O     -181.125     -59.315      68.306
  O     -181.880     -60.758      70.320
  H     -181.605     -61.230      71.123
  H     -178.225     -62.322      68.083
  H     -178.053     -60.589      68.418
  H     -179.148     -61.153      67.119
  H     -177.135     -56.615      66.137
  H     -177.693     -55.011      65.726
  H     -178.720     -56.395      65.435

 3  4  5  6  7  8  9  10  11  12  22  25  29  30  31  32 0
 6-311+G(2d,p)
 ****
 33  36  37 0
 6-311+G(2d,p)
 ****
 1  2  13  14  15  16  17  18  19  20  21  23  24  26 0
 3-21G
 ****
 27  28  34  35  38  39  40  41  42  43  44  45  46  47  48 0
 3-21G
 ****


