%nproc=1
%NoSave
%Mem=1900MB
#P OB98/GEN NMR

erre ene a

0 1
  C     -216.043     208.683     224.193
  O     -215.518     209.522     225.208
  P     -216.335     210.855     225.574
  C     -214.523     212.602     224.806
  O     -215.784     211.989     224.584
  C     -214.305     213.735     223.799
  O     -214.329     213.210     222.455
  C     -215.372     214.824     223.827
  O     -215.199     215.705     224.926
  C     -215.174     215.466     222.459
  O     -214.063     216.378     222.490
  C     -214.833     214.244     221.582
  N     -215.969     213.763     220.796
  C     -216.493     214.653     219.864
  O     -216.043     215.785     219.688
  N     -217.571     214.201     219.147
  C     -218.199     213.002     219.314
  O     -219.188     212.664     218.675
  C     -217.623     212.117     220.338
  C     -216.550     212.532     221.020
  O     -215.695     211.210     226.997
  O     -217.811     210.656     225.574
  H     -214.788     210.871     227.080
  H     -213.302     215.874     222.838
  H     -217.953     214.820     218.448
  H     -218.099     211.159     220.504
  H     -216.118     211.896     221.783
  H     -214.017     214.486     220.893
  H     -216.053     216.030     222.127
  H     -216.368     214.367     223.878
  H     -213.310     214.167     223.979
  H     -213.737     211.853     224.690
  H     -214.493     212.990     225.830
  P     -216.476     216.590     225.348
  C     -215.485     218.999     225.103
  O     -216.321     217.989     224.582
  O     -216.126     216.931     226.872
  O     -217.779     215.887     225.151
  H     -215.191     217.165     227.003
  H     -215.234     219.694     224.301
  H     -214.561     218.580     225.511
  H     -216.016     219.542     225.890
  H     -215.398     207.840     224.058
  H     -216.110     209.231     223.276
  H     -217.017     208.345     224.478

 3  4  5  6  7  8  9  10  11  12  13  24  28  29  30  31  32 0
 6-311+G(2d,p)
 ****
 33  34 0
 6-311+G(2d,p)
 ****
 1  2  14  15  16  17  18  19  20  21  22  23  25  26  27 0
 3-21G
 ****
 35  36  37  38  39  40  41  42  43  44  45 0
 3-21G
 ****


