%nproc=1
%NoSave
%Mem=1900MB
#P OB98/GEN NMR

erre ene a

0 1
  C       96.558      18.494     107.169
  O       95.527      19.445     106.991
  H       97.152      18.448     106.252
  H       96.138      17.503     107.363
  H       97.212      18.790     107.994
  P       94.483      19.672     108.186
  C       94.671      20.508     110.624
  O       95.362      19.994     109.490
  C       95.551      20.411     111.868
  O       95.826      19.031     112.181
  C       96.906      21.102     111.736
  O       96.782      22.496     111.962
  C       97.684      20.400     112.838
  O       97.297      20.936     114.119
  C       97.183      18.950     112.702
  N      101.545      16.423     112.098
  C      101.155      17.288     113.103
  N      102.065      17.539     114.068
  N       99.980      17.864     113.152
  C       99.198      17.577     112.086
  C       99.481      16.750     111.020
  C      100.757      16.066     111.013
  O      101.134      15.272     110.154
  N       98.479      16.778     110.082
  C       97.570      17.578     110.606
  N       97.962      18.098     111.818
  O       93.469      18.588     108.388
  O       93.800      21.080     107.851
  H       97.429      21.901     114.078
  H       92.987      20.960     107.327
  H      102.466      16.015     112.111
  H       96.614      17.813     110.155
  H       97.133      18.440     113.671
  H       98.764      20.532     112.744
  H      103.029      17.247     114.006
  H       97.377      20.881     110.772
  H      101.816      18.215     114.780
  H       94.981      20.822     112.713
  H       93.759      19.916     110.752
  H       94.388      21.554     110.457
  P       97.845      23.544     111.363
  C       98.505      24.156     108.938
  O       97.977      23.171     109.807
  O       99.139      23.610     112.099
  O       97.048      24.926     111.308
  H       97.077      25.421     112.164
  H       98.535      23.772     107.940
  H       99.495      24.414     109.251
  H       97.884      25.027     108.967

 6  7  8  9  10  11  12  13  14  15  26  29  33  34 0
 6-311+G(2d,p)
 ****
 36  38  39  40  41 0
 6-311+G(2d,p)
 ****
 1  2  3  4  5  16  17  18  19  20  21  22  23  24  25 0
 3-21G
 ****
 27  28  30  31  32  35  37  42  43  44  45  46  47 0
 3-21G
 ****
 48  49 0
 3-21G
 ****


