%nproc=1
%NoSave
%Mem=1900MB
#P OB98/GEN NMR

erre ene a

0 1
  C       46.543    -221.221    -347.625
  O       46.780    -221.902    -348.841
  H       45.510    -221.402    -347.321
  H       46.685    -220.144    -347.757
  H       47.210    -221.594    -346.844
  P       48.211    -221.747    -349.547
  C       49.558    -223.503    -348.210
  O       48.935    -223.179    -349.449
  C       50.039    -224.960    -348.223
  O       48.876    -225.809    -348.046
  C       50.722    -225.341    -349.547
  O       52.015    -225.920    -349.359
  C       49.661    -226.173    -350.257
  O       50.176    -227.103    -351.186
  C       48.867    -226.791    -349.102
  N       47.498    -227.158    -349.453
  C       47.262    -228.480    -349.828
  O       48.118    -229.360    -349.876
  N       45.966    -228.777    -350.162
  C       44.910    -227.907    -350.165
  O       43.772    -228.236    -350.469
  C       45.227    -226.522    -349.789
  C       46.484    -226.214    -349.454
  O       49.041    -220.599    -349.077
  O       47.867    -221.625    -351.105
  H       50.721    -227.747    -350.681
  H       47.977    -220.698    -351.392
  H       45.777    -229.735    -350.420
  H       44.418    -225.803    -349.794
  H       46.753    -225.201    -349.166
  H       49.368    -227.692    -348.735
  H       49.002    -225.494    -350.816
  H       50.932    -224.447    -350.146
  H       50.701    -225.119    -347.365
  H       48.817    -223.353    -347.414
  H       50.407    -222.833    -348.038
  P       53.361    -225.395    -350.036
  C       54.163    -222.955    -349.478
  O       54.029    -224.310    -349.073
  O       53.270    -225.045    -351.484
  O       54.364    -226.655    -349.906
  H       54.953    -226.621    -350.691
  H       54.632    -222.394    -348.697
  H       53.195    -222.546    -349.680
  H       54.763    -222.905    -350.363

 6  7  8  9  10  11  12  13  14  15  16  26  31  32  33  34  35 0
 6-311+G(2d,p)
 ****
 36  37 0
 6-311+G(2d,p)
 ****
 1  2  3  4  5  17  18  19  20  21  22  23  24  25 0
 3-21G
 ****
 27  28  29  30  38  39  40  41  42  43  44  45 0
 3-21G
 ****


