%nproc=1
%NoSave
%Mem=1900MB
#P OB98/GEN NMR

erre ene a

0 1
  C      -69.150     181.987    -167.278
  O      -70.268     181.238    -167.695
  P      -70.694     179.845    -167.049
  C      -72.766     180.802    -165.771
  O      -71.510     180.137    -165.700
  C      -73.927     179.798    -165.698
  O      -73.828     179.071    -164.446
  C      -75.289     180.508    -165.698
  O      -76.275     179.873    -166.505
  C      -75.593     180.661    -164.214
  O      -76.968     180.872    -163.933
  C      -74.983     179.384    -163.641
  N      -76.485     179.906    -158.815
  C      -77.242     179.623    -159.935
  N      -78.581     179.667    -159.772
  N      -76.725     179.362    -161.107
  C      -75.377     179.466    -161.140
  C      -74.523     179.736    -160.096
  C      -75.103     179.992    -158.802
  O      -74.478     180.357    -157.805
  N      -73.222     179.831    -160.517
  C      -73.290     179.651    -161.821
  N      -74.581     179.460    -162.252
  O      -69.654     178.771    -167.023
  O      -71.866     179.365    -168.051
  H      -77.265     181.627    -164.476
  H      -71.818     178.390    -168.103
  H      -76.944     180.177    -157.953
  H      -72.446     179.680    -162.501
  H      -75.676     178.544    -163.708
  H      -75.053     181.545    -163.858
  H      -79.004     180.008    -158.920
  H      -75.201     181.505    -166.147
  H      -79.148     179.713    -160.615
  H      -73.827     179.073    -166.514
  H      -72.781     181.325    -166.735
  H      -72.851     181.550    -164.980
  P      -77.604     180.493    -167.135
  C      -76.928     181.093    -169.534
  O      -77.190     181.581    -168.232
  O      -78.238     181.388    -165.972
  O      -78.598     179.483    -167.608
  H      -79.209     181.292    -165.977
  H      -76.402     181.865    -170.101
  H      -77.871     180.866    -170.038
  H      -76.307     180.193    -169.495
  H      -69.079     182.879    -167.865
  H      -68.262     181.404    -167.406
  H      -69.260     182.247    -166.246

 3  4  5  6  7  8  9  10  11  12  23  26  30  31 0
 6-311+G(2d,p)
 ****
 33  35  36  37  38 0
 6-311+G(2d,p)
 ****
 1  2  13  14  15  16  17  18  19  20  21  22  24  25 0
 3-21G
 ****
 27  28  29  32  34  39  40  41  42  43  44  45  46  47  48  49 0
 3-21G
 ****


