%nproc=1
%NoSave
%Mem=1900MB
#P OB98/GEN NMR

erre ene a

0 1
  C      435.111    -849.782     198.010
  O      436.156    -848.866     198.256
  P      437.497    -849.257     199.036
  C      438.139    -850.132     201.389
  O      437.112    -849.646     200.548
  C      437.636    -850.572     202.769
  O      436.955    -851.840     202.646
  C      438.808    -850.812     203.725
  O      439.395    -849.722     204.418
  C      438.390    -851.977     204.608
  O      437.879    -851.549     205.867
  C      437.286    -852.659     203.783
  N      437.345    -857.617     204.861
  C      436.642    -856.598     205.486
  N      436.020    -856.928     206.641
  N      436.568    -855.376     205.009
  C      437.314    -855.182     203.887
  C      438.036    -856.116     203.178
  C      438.069    -857.467     203.687
  O      438.755    -858.374     203.222
  N      438.724    -855.541     202.141
  C      438.440    -854.256     202.238
  N      437.625    -853.986     203.314
  O      438.681    -848.372     198.804
  O      437.837    -850.697     198.385
  H      438.572    -851.025     206.317
  H      438.810    -850.781     198.339
  H      437.429    -858.516     205.309
  H      438.838    -853.473     201.597
  H      436.362    -852.751     204.384
  H      439.238    -852.633     204.821
  H      436.180    -857.803     207.102
  H      439.641    -851.203     203.111
  H      435.648    -856.170     207.198
  H      436.886    -849.875     203.165
  H      438.889    -849.327     201.499
  H      438.652    -850.974     200.912
  P      440.854    -849.687     205.076
  C      442.226    -851.380     206.420
  O      440.934    -850.841     206.185
  O      440.854    -848.353     205.960
  O      441.989    -849.664     204.100
  H      441.780    -848.050     206.115
  H      442.125    -852.334     206.948
  H      442.799    -850.698     207.047
  H      442.763    -851.549     205.471
  H      434.325    -849.291     197.475
  H      434.733    -850.150     198.941
  H      435.483    -850.599     197.427

 3  4  5  6  7  8  9  10  11  12  23  26  30  31 0
 6-311+G(2d,p)
 ****
 33  35  36  37  38 0
 6-311+G(2d,p)
 ****
 1  2  13  14  15  16  17  18  19  20  21  22  24  25 0
 3-21G
 ****
 27  28  29  32  34  39  40  41  42  43  44  45  46  47  48  49 0
 3-21G
 ****


