%nproc=1
%NoSave
%Mem=1900MB
#P OB98/GEN NMR

erre ene a

0 1
  C     -117.633      62.508    -103.326
  O     -117.558      61.558    -102.280
  H     -117.068      63.396    -103.033
  H     -118.671      62.798    -103.506
  H     -117.197      62.103    -104.242
  P     -118.317      60.161    -102.470
  C     -118.289      57.885    -101.253
  O     -117.689      59.167    -101.379
  C     -117.226      56.842    -100.923
  O     -116.262      56.752    -101.989
  C     -116.438      57.141     -99.649
  O     -117.175      56.741     -98.505
  C     -115.198      56.297     -99.889
  O     -115.498      54.911     -99.635
  C     -114.957      56.523    -101.392
  N     -110.415      58.646    -100.644
  C     -110.959      57.499    -100.099
  N     -110.197      56.850     -99.192
  N     -112.147      57.043    -100.399
  C     -112.819      57.835    -101.266
  C     -112.394      59.000    -101.860
  C     -111.056      59.465    -101.563
  O     -110.529      60.467    -102.038
  N     -113.379      59.560    -102.634
  C     -114.385      58.712    -102.536
  N     -114.101      57.655    -101.705
  O     -118.334      59.598    -103.860
  O     -119.790      60.438    -101.914
  H     -116.262      54.685    -100.196
  H     -120.390      60.715    -102.630
  H     -109.502      58.956    -100.358
  H     -115.335      58.815    -103.046
  H     -114.521      55.644    -101.879
  H     -114.361      56.572     -99.248
  H     -109.422      57.303     -98.724
  H     -116.138      58.192     -99.595
  H     -110.597      56.037     -98.744
  H     -117.723      55.866    -100.856
  H     -118.773      57.651    -102.206
  H     -119.049      57.896    -100.466
  P     -116.634      57.046     -97.023
  C     -117.733      57.133     -94.687
  O     -117.925      56.932     -96.080
  O     -115.870      58.318     -96.885
  O     -115.800      55.744     -96.626
  H     -114.850      55.785     -96.898
  H     -118.669      57.029     -94.179
  H     -117.343      58.115     -94.519
  H     -117.042      56.406     -94.314

 6  7  8  9  10  11  12  13  14  15  26  29  33  34 0
 6-311+G(2d,p)
 ****
 36  38  39  40  41 0
 6-311+G(2d,p)
 ****
 1  2  3  4  5  16  17  18  19  20  21  22  23  24  25 0
 3-21G
 ****
 27  28  30  31  32  35  37  42  43  44  45  46  47 0
 3-21G
 ****
 48  49 0
 3-21G
 ****


