%nproc=1
%NoSave
%Mem=1900MB
#P OB98/GEN NMR

erre ene a

0 1
  C      879.525    -897.380     261.221
  O      880.790    -896.860     261.573
  H      878.854    -896.550     260.989
  H      879.101    -897.940     262.061
  H      879.596    -898.030     260.347
  P      881.952    -897.890     261.965
  C      883.326    -897.070     259.925
  O      882.709    -898.180     260.581
  C      884.812    -897.340     259.726
  O      885.032    -898.560     258.974
  C      885.566    -896.260     258.932
  O      885.781    -895.060     259.657
  C      886.847    -897.000     258.625
  O      887.668    -897.040     259.809
  C      886.302    -898.410     258.268
  N      886.121    -898.590     256.825
  C      887.017    -899.440     256.182
  O      887.900    -900.000     256.812
  N      886.891    -899.630     254.822
  C      885.971    -898.980     254.156
  N      885.909    -899.210     252.827
  C      885.032    -898.060     254.798
  C      885.154    -897.910     256.124
  O      881.531    -899.100     262.723
  O      883.037    -896.990     262.739
  H      887.089    -897.270     260.554
  H      883.774    -897.590     263.022
  H      884.295    -897.520     254.194
  H      884.492    -897.240     256.663
  H      886.975    -899.180     258.646
  H      887.441    -896.530     257.842
  H      885.034    -896.040     257.973
  H      885.264    -897.490     260.721
  H      886.591    -899.850     252.415
  H      883.165    -896.180     260.532
  H      885.274    -898.690     252.223
  H      882.862    -896.920     258.937
  P      885.591    -893.660     258.869
  C      883.003    -893.760     259.243
  O      884.069    -893.680     258.312
  O      886.472    -893.900     257.545
  O      885.973    -892.450     259.626
  H      887.344    -893.470     257.646
  H      882.071    -893.763     258.718
  H      883.039    -892.917     259.900
  H      883.094    -894.661     259.813

 6  7  8  9  10  11  12  13  14  15  16  26  30  31  32  33  35 0
 6-311+G(2d,p)
 ****
 37  38 0
 6-311+G(2d,p)
 ****
 1  2  3  4  5  17  18  19  20  21  22  23  24  25 0
 3-21G
 ****
 27  28  29  34  36  39  40  41  42  43  44  45  46 0
 3-21G
 ****


