%nproc=1
%NoSave
%Mem=1900MB
#P OB98/GEN NMR

erre ene a

0 1
  C      328.121       4.831    -144.189
  O      329.230       5.371    -143.503
  H      327.935       5.431    -145.080
  H      327.233       4.862    -143.553
  H      328.329       3.800    -144.495
  P      329.702       4.619    -142.159
  C      332.129       4.909    -143.050
  O      331.236       5.054    -141.951
  C      333.446       5.640    -142.766
  O      333.242       7.062    -142.946
  C      333.978       5.414    -141.347
  O      335.394       5.204    -141.402
  C      333.657       6.707    -140.616
  O      334.542       6.946    -139.532
  C      333.717       7.732    -141.760
  N      332.907       8.925    -141.465
  C      333.609      10.100    -141.185
  O      334.843      10.111    -141.179
  N      332.895      11.229    -140.866
  C      331.600      11.177    -140.770
  N      330.954      12.326    -140.421
  C      330.824       9.941    -141.007
  C      331.535       8.863    -141.347
  O      329.797       3.090    -142.621
  O      328.825       4.836    -140.968
  H      334.316       7.814    -139.135
  H      329.875       2.481    -141.846
  H      329.749       9.940    -140.903
  H      331.050       7.911    -141.547
  H      334.750       8.053    -141.938
  H      332.637       6.653    -140.219
  H      333.512       4.569    -140.852
  H      334.182       5.333    -143.516
  H      331.519      13.142    -140.256
  H      331.659       5.324    -143.949
  H      329.954      12.386    -140.295
  H      332.337       3.848    -143.208
  P      335.947       3.958    -140.544
  C      337.806       3.497    -142.287
  O      337.495       3.751    -140.926
  O      335.213       2.691    -141.194
  O      335.675       4.079    -139.069
  H      334.441       2.431    -140.660
  H      338.864       3.381    -142.395
  H      337.474       4.318    -142.888
  H      337.314       2.601    -142.604

 6  7  8  9  10  11  12  13  14  15  16  26  30  31  32  33  35 0
 6-311+G(2d,p)
 ****
 37  38 0
 6-311+G(2d,p)
 ****
 1  2  3  4  5  17  18  19  20  21  22  23  24  25 0
 3-21G
 ****
 27  28  29  34  36  39  40  41  42  43  44  45  46 0
 3-21G
 ****


