%nproc=1
%NoSave
%Mem=1900MB
#P OB98/GEN NMR

erre ene a

0 1
  C     -215.590     276.025    -347.020
  O     -215.103     276.465    -345.765
  P     -213.532     276.626    -345.505
  C     -211.406     275.124    -345.853
  O     -212.810     275.260    -345.899
  C     -211.056     273.722    -345.324
  O     -211.736     272.714    -346.106
  C     -209.557     273.452    -345.400
  O     -208.930     273.760    -344.168
  C     -209.505     271.979    -345.753
  O     -209.678     271.175    -344.573
  C     -210.730     271.836    -346.685
  N     -210.577     272.201    -348.111
  C     -209.799     271.408    -348.943
  O     -209.250     270.370    -348.581
  N     -209.654     271.858    -350.234
  C     -210.243     272.977    -350.751
  O     -209.918     273.499    -351.818
  C     -211.248     273.618    -349.908
  C     -211.350     273.226    -348.635
  O     -213.427     276.652    -343.905
  O     -212.900     277.829    -346.126
  H     -208.881     271.288    -344.028
  H     -213.358     277.568    -343.582
  H     -208.983     271.361    -350.809
  H     -211.840     274.428    -350.332
  H     -212.073     273.713    -347.979
  H     -211.128     270.815    -346.660
  H     -208.539     271.707    -346.168
  H     -209.110     274.032    -346.224
  H     -211.407     273.644    -344.285
  H     -210.976     275.895    -345.208
  H     -210.981     275.265    -346.855
  P     -207.331     273.854    -344.092
  C     -205.452     272.138    -343.790
  O     -206.843     272.365    -343.732
  O     -206.788     274.940    -343.215
  O     -206.902     274.051    -345.622
  H     -206.744     275.000    -345.809
  H     -205.234     271.159    -343.357
  H     -204.911     272.908    -343.216
  H     -205.119     272.146    -344.831
  H     -216.659     275.983    -346.993
  H     -215.200     275.051    -347.232
  H     -215.279     276.708    -347.783

 3  4  5  6  7  8  9  10  11  12  13  23  28  29  30  31  32 0
 6-311+G(2d,p)
 ****
 33  34 0
 6-311+G(2d,p)
 ****
 1  2  14  15  16  17  18  19  20  21  22  24  25  26  27 0
 3-21G
 ****
 35  36  37  38  39  40  41  42  43  44  45 0
 3-21G
 ****


