%nproc=1
%NoSave
%Mem=1900MB
#P OB98/GEN NMR

erre ene a

0 1
  C      -64.712      60.339      33.441
  O      -63.692      61.318      33.462
  H      -65.660      60.824      33.196
  H      -64.800      59.865      34.423
  H      -64.495      59.582      32.682
  P      -62.208      60.804      33.785
  C      -61.134      61.543      31.535
  O      -61.530      60.463      32.372
  C      -59.629      61.482      31.296
  O      -58.927      61.679      32.546
  C      -59.143      60.140      30.765
  O      -59.383      59.988      29.378
  C      -57.666      60.202      31.121
  O      -56.919      60.929      30.137
  C      -57.674      60.963      32.452
  N      -54.806      57.242      34.447
  C      -54.662      57.994      33.335
  N      -55.466      58.977      32.878
  C      -56.496      59.174      33.718
  C      -56.771      58.489      34.889
  C      -55.866      57.479      35.254
  N      -56.025      56.696      36.373
  N      -57.942      58.950      35.457
  C      -58.362      59.902      34.649
  N      -57.519      60.075      33.587
  O      -62.459      59.367      34.443
  O      -61.410      61.692      34.677
  H      -56.050      61.121      30.541
  H      -62.396      59.438      35.415
  H      -53.791      57.769      32.725
  H      -59.267      60.483      34.785
  H      -56.870      61.707      32.510
  H      -57.240      59.201      31.189
  H      -59.607      59.322      31.328
  H      -59.349      62.297      30.615
  H      -61.384      62.491      32.024
  H      -61.679      61.475      30.588
  H      -55.376      55.945      36.536
  H      -56.873      56.788      36.919
  P      -59.450      58.499      28.792
  C      -61.993      57.936      28.929
  O      -60.697      57.770      29.488
  O      -58.177      57.775      29.438
  O      -59.439      58.416      27.303
  H      -57.798      57.139      28.801
  H      -62.705      57.388      29.510
  H      -61.997      57.571      27.923
  H      -62.253      58.974      28.933

 6  7  8  9  10  11  12  13  14  15  25  28  32  33  34  35 0
 6-311+G(2d,p)
 ****
 36  37  40 0
 6-311+G(2d,p)
 ****
 1  2  3  4  5  16  17  18  19  20  21  22  23  24 0
 3-21G
 ****
 26  27  29  30  31  38  39 41  42  43  44  45  46  47  48 0
 3-21G
 ****


