%nproc=1
%NoSave
%Mem=1900MB
#P OB98/GEN NMR

erre ene a

0 1
  C       27.615    -332.295     281.870
  O       26.797    -332.909     282.853
  H       27.166    -332.473     280.893
  H       28.614    -332.740     281.890
  H       27.675    -331.218     282.046
  P       27.178    -332.614     284.389
  C       28.852    -334.556     284.982
  O       28.657    -333.204     284.587
  C       30.342    -334.897     285.003
  O       31.038    -333.922     285.824
  C       30.653    -336.286     285.566
  O       31.747    -336.847     284.831
  C       31.080    -336.012     286.998
  O       31.901    -337.055     287.531
  C       31.763    -334.634     286.852
  N       31.774    -333.891     288.110
  C       32.948    -333.976     288.879
  O       33.888    -334.679     288.506
  N       33.001    -333.308     290.075
  C       31.961    -332.663     290.504
  N       32.071    -332.041     291.703
  C       30.688    -332.585     289.750
  C       30.673    -333.204     288.568
  O       26.244    -333.663     285.160
  O       26.994    -331.186     284.806
  H       31.862    -336.992     288.511
  H       26.207    -334.534     284.730
  H       29.843    -332.045     290.155
  H       29.774    -333.190     287.948
  H       32.795    -334.760     286.506
  H       30.193    -335.922     287.639
  H       29.805    -336.965     285.526
  H       30.747    -334.783     283.985
  H       32.957    -332.126     292.202
  H       28.335    -335.229     284.291
  H       31.304    -331.555     292.162
  H       28.419    -334.681     285.976
  P       31.692    -338.388     284.399
  C       33.153    -339.437     286.243
  O       31.847    -339.311     285.704
  O       32.573    -338.764     283.254
  O       30.148    -338.594     284.012
  H       30.105    -339.191     283.231
  H       33.124    -340.072     287.103
  H       33.517    -338.471     286.525
  H       33.803    -339.862     285.507

 6  7  8  9  10  11  12  13  14  15  16  26  30  31  32  33  35 0
 6-311+G(2d,p)
 ****
 37  38 0
 6-311+G(2d,p)
 ****
 1  2  3  4  5  17  18  19  20  21  22  23  24  25 0
 3-21G
 ****
 27  28  29  34  36  39  40  41  42  43  44  45  46 0
 3-21G
 ****


