%nproc=1
%NoSave
%Mem=1900MB
#P OB98/GEN NMR

erre ene a

0 1
  C      170.238     -58.013      69.473
  O      169.289     -57.628      68.463
  P      168.746     -58.739      67.435
  C      168.309     -57.574      65.133
  O      167.781     -58.027      66.372
  C      167.281     -56.696      64.412
  O      167.007     -55.502      65.180
  C      167.732     -56.194      63.047
  O      167.640     -57.203      62.056
  C      166.769     -55.032      62.821
  O      165.509     -55.502      62.310
  C      166.605     -54.474      64.249
  N      167.357     -53.239      64.458
  C      166.970     -52.142      63.697
  O      166.088     -52.193      62.841
  N      167.659     -50.983      63.926
  C      168.721     -50.833      64.774
  O      169.310     -49.770      64.923
  C      169.135     -52.048      65.493
  C      168.450     -53.177      65.301
  O      167.700     -59.550      68.342
  O      169.779     -59.660      66.872
  H      164.962     -54.708      62.147
  H      167.633     -60.469      68.022
  H      167.375     -50.167      63.406
  H      169.988     -51.977      66.157
  H      168.745     -54.082      65.824
  H      165.546     -54.277      64.457
  H      167.156     -54.306      62.101
  H      168.754     -55.805      63.112
  H      166.347     -57.265      64.325
  H      168.546     -58.437      64.505
  H      169.230     -57.014      65.323
  P      168.962     -57.477      61.184
  C      167.661     -56.915      58.984
  O      168.431     -57.844      59.717
  O      169.456     -58.866      61.806
  O      169.958     -56.367      61.264
  H      168.713     -59.425      62.090
  H      167.962     -55.886      59.199
  H      166.605     -57.043      59.235
  H      167.800     -57.108      57.915
  H      170.492     -57.160      70.067
  H      171.120     -58.398      69.005
  H      169.807     -58.767      70.098

 3  4  5  6  7  8  9  10  11  12  13  23  28  29  30  31  32 0
 6-311+G(2d,p)
 ****
 33  34 0
 6-311+G(2d,p)
 ****
 1  2  14  15  16  17  18  19  20  21  22  24  25  26 0
 3-21G
 ****
 27  35  36  37  38  39  40  41  42  43  44  45 0
 3-21G
 ****


