%nproc=1
%NoSave
%Mem=1900MB
#P OB98/GEN NMR

erre ene a

0 1
  C      230.899    -200.046     -78.621
  O      230.682    -200.754     -79.824
  P      230.452    -199.954     -81.192
  C      229.555    -202.275     -81.843
  O      230.027    -201.017     -82.316
  C      229.758    -203.353     -82.905
  O      229.014    -203.028     -84.097
  C      231.206    -203.514     -83.356
  O      231.957    -204.222     -82.390
  C      231.020    -204.241     -84.681
  O      230.832    -205.650     -84.464
  C      229.730    -203.604     -85.215
  N      230.186    -202.726     -90.220
  C      230.094    -203.871     -89.511
  N      230.014    -204.025     -88.171
  C      230.062    -202.830     -87.559
  C      230.191    -201.581     -88.144
  C      230.232    -201.549     -89.549
  N      230.264    -200.383     -90.284
  N      230.237    -200.594     -87.174
  C      230.146    -201.241     -86.030
  N      229.972    -202.583     -86.214
  O      231.550    -199.026     -81.583
  O      229.094    -199.145     -80.933
  H      230.077    -205.751     -83.855
  H      229.270    -198.189     -81.008
  H      230.070    -204.787     -90.097
  H      230.183    -200.782     -85.049
  H      229.063    -204.348     -85.665
  H      231.880    -204.128     -85.346
  H      231.650    -202.529     -83.545
  H      229.369    -204.300     -82.509
  H      228.491    -202.176     -81.610
  H      230.143    -200.471     -91.282
  H      229.993    -199.518     -89.825
  H      230.091    -202.542     -80.924
  P      233.209    -203.518     -81.683
  C      235.050    -204.926     -82.781
  O      234.371    -204.618     -81.579
  O      232.909    -202.787     -80.417
  O      233.767    -202.522     -82.811
  H      234.152    -201.733     -82.382
  H      234.433    -205.586     -83.393
  H      235.984    -205.437     -82.535
  H      235.281    -204.016     -83.341
  H      231.032    -200.740     -77.818
  H      230.054    -199.422     -78.417
  H      231.775    -199.440     -78.717

 3  4  5  6  7  8  9  10  11  12  22  25  29  30  31  32 0
 6-311+G(2d,p)
 ****
 33  36  37 0
 6-311+G(2d,p)
 ****
 1  2  13  14  15  16  17  18  19  20  21  23  24  26 0
 3-21G
 ****
 27  28  34  35  38  39  40  41  42  43  44  45  46  47  48 0
 3-21G
 ****


