%nproc=1
%NoSave
%Mem=1900MB
#P OB98/GEN NMR

erre ene a

0 1
  C      -16.915    -154.891     160.953
  O      -16.744    -156.264     160.659
  H      -17.900    -154.576     160.596
  H      -16.153    -154.291     160.447
  H      -16.864    -154.722     162.032
  P      -15.340    -156.951     161.012
  C      -14.445    -155.980     158.788
  O      -14.562    -157.128     159.622
  C      -14.165    -156.392     157.343
  O      -14.117    -155.231     156.491
  C      -12.837    -157.111     157.147
  O      -12.914    -158.442     157.615
  C      -12.655    -156.955     155.644
  O      -13.464    -157.902     154.929
  C      -13.180    -155.514     155.423
  N      -12.118    -154.510     155.386
  C      -11.943    -153.849     154.166
  O      -12.646    -154.134     153.196
  N      -10.957    -152.894     154.075
  C      -10.245    -152.594     155.114
  N       -9.288    -151.639     154.961
  C      -10.422    -153.245     156.429
  C      -11.357    -154.190     156.490
  O      -15.404    -158.193     161.847
  O      -14.517    -155.790     161.744
  H      -14.372    -157.811     155.287
  H      -14.621    -155.853     162.712
  H       -9.811    -152.957     157.273
  H      -11.552    -154.715     157.419
  H      -13.741    -155.449     154.484
  H      -11.624    -157.117     155.332
  H      -12.030    -156.563     157.648
  H      -15.004    -157.017     157.002
  H       -9.217    -151.207     154.045
  H      -13.613    -155.382     159.175
  H       -8.791    -151.213     155.732
  H      -15.357    -155.372     158.838
  P      -11.826    -159.037     158.635
  C      -10.519    -160.218     156.758
  O      -11.278    -160.381     157.950
  O      -12.295    -159.196     160.043
  O      -10.582    -158.042     158.484
  H      -10.753    -157.197     158.975
  H      -10.211    -161.177     156.397
  H       -9.656    -159.620     156.964
  H      -11.119    -159.734     156.016

 6  7  8  9  10  11  12  13  14  15  16  26  30  31  32  33  35 0
 6-311+G(2d,p)
 ****
 37  38 0
 6-311+G(2d,p)
 ****
 1  2  3  4  5  17  18  19  20  21  22  23  24  25 0
 3-21G
 ****
 27  28  29  34  36  39  40  41  42  43  44  45  46 0
 3-21G
 ****


