%nproc=1
%NoSave
%Mem=1900MB
#P OB98/GEN NMR

erre ene a

0 1
  C     -304.907     314.635    -350.333
  O     -305.237     313.811    -351.437
  H     -305.811     315.154    -350.001
  H     -304.163     315.380    -350.631
  H     -304.522     314.029    -349.511
  P     -304.044     312.941    -352.060
  C     -302.932     313.370    -354.362
  O     -303.350     313.926    -353.121
  C     -302.925     314.443    -355.448
  O     -304.266     314.772    -355.855
  C     -302.292     315.765    -355.027
  O     -300.873     315.693    -355.105
  C     -302.868     316.704    -356.070
  O     -302.131     316.576    -357.301
  C     -304.297     316.165    -356.259
  N     -308.185     319.512    -356.474
  C     -307.246     319.166    -357.382
  N     -306.220     318.302    -357.244
  C     -306.205     317.763    -356.012
  C     -307.096     318.026    -354.979
  C     -308.131     318.939    -355.249
  N     -309.094     319.282    -354.323
  N     -306.773     317.294    -353.854
  C     -305.734     316.568    -354.220
  N     -305.333     316.843    -355.500
  O     -304.423     311.588    -352.564
  O     -302.995     312.947    -350.848
  H     -302.360     315.714    -357.698
  H     -302.986     313.815    -350.409
  H     -307.335     319.646    -358.352
  H     -305.251     315.820    -353.600
  H     -304.607     316.193    -357.312
  H     -302.800     317.752    -355.768
  H     -302.639     316.071    -354.032
  H     -302.408     314.031    -356.326
  H     -303.595     312.553    -354.655
  H     -309.688     320.065    -354.541
  H     -308.982     318.948    -353.381
  H     -301.923     312.970    -354.222
  P     -299.959     316.458    -354.031
  C     -298.707     318.708    -354.019
  O     -299.797     317.967    -354.564
  O     -298.672     315.776    -353.700
  O     -300.892     316.624    -352.748
  H     -300.374     316.500    -351.928
  H     -298.697     319.691    -354.442
  H     -297.788     318.211    -354.249
  H     -298.819     318.778    -352.957

 6  7  8  9  10  11  12  13  14  15  25  28  32  33  34  35 0
 6-311+G(2d,p)
 ****
 36  39  40 0
 6-311+G(2d,p)
 ****
 1  2  3  4  5  16  17  18  19  20  21  22  23  24 0
 3-21G
 ****
 26  27  29  30  31  37  38  41  42  43  44  45  46  47 0
 3-21G
 ****
 48 0
 3-21G
 ****


