%nproc=1
%NoSave
%Mem=1900MB
#P OB98/GEN NMR

erre ene a

0 1
  C     -189.723     143.549      99.496
  O     -190.466     144.552      98.834
  P     -192.040     144.687      99.100
  C     -193.995     143.020      99.151
  O     -192.743     143.352      98.558
  C     -194.466     141.652      98.661
  O     -193.537     140.625      99.063
  C     -195.820     141.224      99.222
  O     -196.872     141.903      98.568
  C     -195.777     139.722      98.975
  O     -196.136     139.422      97.618
  C     -194.294     139.402      99.217
  N     -193.929     135.051     101.858
  C     -194.340     135.310     100.597
  N     -194.445     136.505      99.979
  C     -194.098     137.500     100.810
  C     -193.692     137.394     102.131
  C     -193.587     136.094     102.654
  N     -193.113     135.817     103.918
  N     -193.450     138.648     102.661
  C     -193.715     139.488     101.685
  N     -194.046     138.837     100.527
  O     -192.660     145.963      98.632
  O     -192.170     144.543     100.688
  H     -197.059     139.718      97.488
  H     -192.562     145.357     101.056
  H     -194.611     134.441     100.004
  H     -193.663     140.565     101.757
  H     -193.903     138.694      98.478
  H     -196.462     139.169      99.622
  H     -195.851     141.413     100.302
  H     -194.492     141.674      97.564
  H     -194.723     143.786      98.870
  H     -192.941     134.846     104.137
  H     -192.578     136.533     104.401
  H     -193.890     143.015     100.239
  P     -198.270     142.114      99.320
  C     -199.479     140.545     100.952
  O     -198.818     140.657      99.705
  O     -199.251     143.000      98.624
  O     -197.847     142.722     100.741
  H     -198.544     143.327     101.056
  H     -198.736     140.516     101.757
  H     -200.050     139.618     100.963
  H     -200.158     141.386     101.111
  H     -188.697     143.610      99.198
  H     -190.113     142.587      99.237
  H     -189.796     143.691     100.554

 3  4  5  6  7  8  9  10  11  12  22  25  29  30  31  32 0
 6-311+G(2d,p)
 ****
 33  36  37 0
 6-311+G(2d,p)
 ****
 1  2  13  14  15  16  17  18  19  20  21  23  24  26 0
 3-21G
 ****
 27  28  34  35  38  39  40  41  42  43  44  45  46  47  48 0
 3-21G
 ****


