%nproc=1
%NoSave
%Mem=1900MB
#P OB98/GEN NMR

erre ene a

0 1
  C     -209.180     114.381     218.538
  O     -208.070     113.655     219.102
  P     -206.784     114.476     219.618
  C     -205.031     113.922     217.763
  O     -205.860     114.900     218.378
  C     -204.388     114.468     216.470
  O     -203.400     113.511     215.967
  C     -205.382     114.735     215.333
  O     -204.875     115.858     214.590
  C     -205.277     113.465     214.497
  O     -205.747     113.624     213.170
  C     -203.769     113.195     214.605
  N     -203.382     111.822     214.267
  C     -203.547     111.406     212.945
  O     -204.050     112.092     212.059
  N     -203.126     110.129     212.668
  C     -202.609     109.235     213.565
  O     -202.280     108.092     213.256
  C     -202.487     109.720     214.945
  C     -202.874     110.966     215.232
  O     -205.918     113.322     220.315
  O     -207.074     115.570     220.595
  H     -205.412     112.871     212.642
  H     -205.590     113.637     221.182
  H     -203.217     109.819     211.714
  H     -202.079     109.042     215.686
  H     -202.779     111.350     216.241
  H     -203.222     113.893     213.953
  H     -205.872     112.671     214.970
  H     -206.399     114.935     215.689
  H     -203.837     115.381     216.728
  H     -205.632     113.038     217.518
  H     -204.248     113.621     218.473
  P     -205.539     117.298     214.839
  C     -206.986     117.373     212.660
  O     -206.948     117.324     214.075
  O     -204.595     118.215     213.919
  O     -205.554     117.733     216.278
  H     -204.438     117.824     213.043
  H     -206.224     116.717     212.216
  H     -206.824     118.398     212.324
  H     -207.972     117.036     212.321
  H     -209.946     113.692     218.247
  H     -208.849     114.929     217.681
  H     -209.569     115.060     219.267

 3  4  5  6  7  8  9  10  11  12  13  23  28  29  30  31  32 0
 6-311+G(2d,p)
 ****
 33  34 0
 6-311+G(2d,p)
 ****
 1  2  14  15  16  17  18  19  20  21  22  24  25  26 0
 3-21G
 ****
 27  35  36  37  38  39  40  41  42  43  44  45 0
 3-21G
 ****


