%nproc=1
%NoSave
%Mem=1900MB
#P OB98/GEN NMR

erre ene a

0 1
  C     -157.849     141.130      75.552
  O     -158.355     139.840      75.891
  P     -157.952     138.614      74.940
  C     -160.388     137.885      74.296
  O     -159.139     138.404      73.881
  C     -161.125     137.212      73.120
  O     -161.220     138.168      72.033
  C     -160.428     135.992      72.527
  O     -161.382     135.242      71.771
  C     -159.432     136.632      71.586
  O     -158.946     135.704      70.620
  C     -160.227     137.833      71.025
  N     -159.387     139.013      70.727
  C     -158.727     139.065      69.500
  O     -158.799     138.179      68.646
  N     -157.933     140.157      69.287
  C     -157.771     141.206      70.142
  O     -156.977     142.119      69.938
  C     -158.596     141.170      71.355
  C     -159.344     140.091      71.595
  O     -158.055     137.342      75.903
  O     -156.598     138.748      74.326
  H     -159.690     135.534      69.999
  H     -157.162     137.034      76.148
  H     -157.399     140.175      68.431
  H     -158.542     142.018      72.029
  H     -159.943     140.041      72.500
  H     -160.750     137.559      70.100
  H     -158.565     136.988      72.153
  H     -159.942     135.344      73.261
  H     -162.147     136.962      73.430
  H     -161.003     138.681      74.721
  H     -160.235     137.148      75.095
  P     -162.141     134.034      72.505
  C     -160.799     132.238      71.246
  O     -161.123     132.795      72.506
  O     -163.522     133.737      72.021
  O     -162.138     134.492      74.041
  H     -162.822     134.000      74.532
  H     -159.793     131.817      71.298
  H     -160.831     132.993      70.455
  H     -161.509     131.439      71.014
  H     -158.194     141.848      76.266
  H     -158.194     141.403      74.577
  H     -156.779     141.107      75.559

 3  4  5  6  7  8  9  10  11  12  13  23  28  29  30  31  32 0
 6-311+G(2d,p)
 ****
 33  34 0
 6-311+G(2d,p)
 ****
 1  2  14  15  16  17  18  19  20  21  22  24  25  26  27 0
 3-21G
 ****
 35  36  37  38  39  40  41  42  43  44  45 0
 3-21G
 ****


