%nproc=1
%NoSave
%Mem=1900MB
#P OB98/GEN NMR

erre ene a

0 1
  C      762.476    -708.696    -323.708
  O      761.342    -707.848    -323.912
  P      761.241    -706.784    -325.118
  C      759.125    -707.757    -326.242
  O      760.517    -707.498    -326.378
  C      758.400    -707.587    -327.590
  O      758.599    -706.231    -328.103
  C      758.858    -708.575    -328.679
  O      757.677    -708.938    -329.419
  C      759.766    -707.707    -329.533
  O      760.018    -708.207    -330.828
  C      758.997    -706.378    -329.482
  N      759.724    -705.197    -329.943
  C      759.664    -704.874    -331.307
  O      759.072    -705.595    -332.104
  N      760.309    -703.739    -331.744
  C      760.971    -703.004    -330.918
  N      761.573    -701.900    -331.406
  C      761.061    -703.309    -329.465
  C      760.440    -704.398    -329.067
  O      762.546    -706.142    -325.459
  O      760.181    -705.684    -324.643
  H      760.449    -704.813    -324.977
  H      760.478    -709.047    -330.751
  H      761.624    -702.656    -328.805
  H      760.438    -704.673    -328.007
  H      758.068    -706.481    -330.087
  H      760.737    -707.618    -329.029
  H      759.326    -709.463    -328.304
  H      757.327    -707.691    -327.405
  H      761.470    -701.710    -332.399
  H      758.715    -707.044    -325.531
  H      762.106    -701.245    -330.844
  H      758.990    -708.769    -325.856
  P      757.033    -710.396    -329.228
  C      754.574    -709.696    -328.727
  O      755.784    -710.247    -328.221
  O      758.120    -711.091    -328.261
  O      756.852    -711.224    -330.447
  H      758.085    -712.067    -328.374
  H      753.732    -710.321    -328.353
  H      754.538    -709.662    -329.814
  H      754.473    -708.685    -328.324
  H      762.311    -709.312    -322.849
  H      763.348    -708.095    -323.554
  H      762.618    -709.315    -324.569

 3  4  5  6  7  8  9  10  11  12  13  24  27  28  29  30  32 0
 6-311+G(2d,p)
 ****
 34  35 0
 6-311+G(2d,p)
 ****
 1  2  14  15  16  17  18  19  20  21  22  23  25  26 0
 3-21G
 ****
 31  33  36  37  38  39  40  41  42  43  44  45  46 0
 3-21G
 ****


