%nproc=1
%NoSave
%Mem=1900MB
#P OB98/GEN NMR

erre ene a

0 1
  C      178.019    -184.819       6.294
  O      178.227    -186.104       6.845
  H      177.211    -184.878       5.561
  H      178.926    -184.480       5.791
  H      177.736    -184.106       7.074
  P      179.204    -186.212       8.111
  C      177.272    -185.704       9.774
  O      178.544    -185.322       9.274
  C      177.402    -186.189      11.218
  O      177.615    -185.032      12.076
  C      176.163    -186.927      11.742
  O      176.598    -187.974      12.615
  C      175.449    -185.864      12.557
  O      174.581    -186.388      13.552
  C      176.642    -185.098      13.138
  N      176.278    -183.760      13.602
  C      175.477    -183.673      14.735
  O      175.126    -184.630      15.422
  N      175.075    -182.407      15.076
  C      175.365    -181.259      14.400
  O      174.957    -180.156      14.745
  C      176.207    -181.417      13.206
  C      176.615    -182.641      12.866
  O      180.473    -185.349       7.659
  O      179.571    -187.598       8.522
  H      181.123    -185.914       7.201
  H      175.105    -187.002      14.105
  H      174.493    -182.325      15.895
  H      176.450    -180.530      12.638
  H      177.220    -182.796      11.978
  H      177.094    -185.663      13.962
  H      174.858    -185.222      11.895
  H      175.523    -187.342      10.956
  H      178.296    -186.818      11.300
  H      176.870    -186.517       9.161
  H      176.591    -184.849       9.718
  P      176.243    -189.482      12.191
  C      178.173    -189.777      10.444
  O      176.780    -189.644      10.689
  O      174.655    -189.394      12.040
  O      176.734    -190.493      13.172
  H      174.353    -188.538      11.694
  H      178.342    -189.874       9.392
  H      178.542    -190.647      10.946
  H      178.684    -188.911      10.809

 6  7  8  9  10  11  12  13  14  15  16  27  31  32  33  34  35 0
 6-311+G(2d,p)
 ****
 36  37 0
 6-311+G(2d,p)
 ****
 1  2  3  4  5  17  18  19  20  21  22  23  24  25 0
 3-21G
 ****
 26  28  29  30  38  39  40  41  42  43  44  45 0
 3-21G
 ****


