%nproc=1
%NoSave
%Mem=1900MB
#P OB98/GEN NMR

erre ene a

0 1
  C       66.726    -102.250    -391.200
  O       67.354    -101.860    -389.978
  P       67.433    -102.916    -388.773
  C       69.984    -103.238    -388.945
  O       68.898    -102.842    -388.119
  C       71.187    -103.666    -388.095
  O       71.933    -102.497    -387.638
  C       70.776    -104.455    -386.842
  O       71.775    -105.435    -386.514
  C       70.795    -103.394    -385.756
  O       70.907    -103.971    -384.456
  C       71.996    -102.555    -386.199
  N       74.455     -99.283    -383.114
  C       74.768    -100.532    -383.534
  N       74.072    -101.331    -384.374
  C       72.956    -100.721    -384.800
  C       72.511     -99.453    -384.467
  C       73.311     -98.717    -383.571
  N       72.976     -97.460    -383.120
  N       71.316     -99.167    -385.094
  C       71.021    -100.268    -385.761
  N       71.995    -101.221    -385.641
  O       66.950    -104.292    -389.083
  O       66.521    -102.228    -387.644
  H       71.831    -104.265    -384.348
  H       65.970    -102.914    -387.215
  H       75.693    -100.939    -383.143
  H       70.112    -100.426    -386.329
  H       72.944    -103.032    -385.924
  H       69.867    -102.808    -385.791
  H       69.800    -104.949    -386.919
  H       71.870    -104.260    -388.718
  H       70.265    -102.411    -389.601
  H       73.549     -97.060    -382.392
  H       72.061     -97.093    -383.332
  H       69.655    -104.049    -389.605
  P       71.726    -106.798    -387.375
  C       74.305    -107.168    -387.615
  O       73.086    -107.572    -387.034
  O       71.437    -106.578    -388.824
  O       70.591    -107.635    -386.616
  H       70.706    -107.686    -385.647
  H       75.121    -107.733    -387.159
  H       74.485    -106.103    -387.443
  H       74.293    -107.373    -388.693
  H       66.758    -101.436    -391.893
  H       65.707    -102.515    -391.009
  H       67.242    -103.091    -391.614

 3  4  5  6  7  8  9  10  11  12  22  25  29  30  31  32 0
 6-311+G(2d,p)
 ****
 33  36  37 0
 6-311+G(2d,p)
 ****
 1  2  13  14  15  16  17  18  19  20  21  23  24  26 0
 3-21G
 ****
 27  28  34  35  38  39  40  41  42  43  44  45  46  47  48 0
 3-21G
 ****


