%nproc=1
%NoSave
%Mem=1900MB
#P OB98/GEN NMR

erre ene a

0 1
  C      -82.678     675.165    -782.139
  O      -82.996     676.525    -781.895
  H      -83.073     674.894    -783.127
  H      -83.154     674.527    -781.384
  H      -81.602     675.008    -782.140
  P      -82.446     677.214    -780.555
  C      -80.581     678.518    -781.758
  O      -80.894     677.515    -780.792
  C      -79.072     678.750    -781.833
  O      -78.412     677.500    -782.172
  C      -78.659     679.808    -782.870
  O      -77.572     680.570    -782.346
  C      -78.186     678.957    -784.054
  O      -77.221     679.651    -784.859
  C      -77.596     677.741    -783.336
  N      -74.770     673.910    -785.034
  C      -74.486     674.874    -784.090
  N      -73.253     674.842    -783.545
  N      -75.328     675.814    -783.729
  C      -76.534     675.718    -784.366
  C      -76.931     674.793    -785.311
  C      -75.989     673.781    -785.716
  O      -76.172     672.905    -786.546
  N      -78.215     675.055    -785.735
  C      -78.588     676.123    -785.036
  N      -77.594     676.563    -784.204
  O      -82.746     676.479    -779.281
  O      -83.114     678.676    -780.566
  H      -76.985     679.055    -785.603
  H      -83.888     678.708    -779.975
  H      -74.069     673.218    -785.284
  H      -79.547     676.606    -785.110
  H      -76.560     677.890    -783.010
  H      -79.033     678.688    -784.674
  H      -72.550     674.146    -783.754
  H      -79.491     680.472    -783.158
  H      -73.026     675.535    -782.819
  H      -78.720     679.039    -780.833
  H      -81.089     679.445    -781.469
  H      -80.959     678.203    -782.750
  P      -77.887     681.894    -781.514
  C      -77.578     680.689    -779.239
  O      -78.470     681.457    -780.070
  O      -78.697     682.934    -782.213
  O      -76.423     682.441    -781.143
  H      -76.464     683.419    -781.075
  H      -78.064     680.456    -778.314
  H      -76.693     681.258    -779.044
  H      -77.315     679.782    -779.742

 6  7  8  9  10  11  12  13  14  15  26  29  33  34 0
 6-311+G(2d,p)
 ****
 36  38  39  40  41 0
 6-311+G(2d,p)
 ****
 1  2  3  4  5  16  17  18  19  20  21  22  23  24  25 0
 3-21G
 ****
 27  28  30  31  32  35  37  42  43  44  45  46  47 0
 3-21G
 ****
 48  49 0
 3-21G
 ****


