%nproc=1
%NoSave
%Mem=1900MB
#P OB98/GEN NMR

erre ene a

0 1
  C      198.045      23.630     142.497
  O      197.448      24.899     142.282
  P      197.840      26.106     143.263
  C      195.872      25.773     144.974
  O      197.265      25.728     144.714
  C      195.592      26.598     146.236
  O      194.242      27.132     146.158
  C      195.697      25.805     147.548
  O      196.222      26.697     148.542
  C      194.249      25.462     147.851
  O      194.028      25.172     149.223
  C      193.544      26.731     147.356
  N      192.120      26.538     147.078
  C      191.244      26.479     148.160
  O      191.605      26.558     149.340
  N      189.922      26.290     147.847
  C      189.406      26.098     146.602
  O      188.216      25.917     146.383
  C      190.380      26.123     145.502
  C      191.670      26.346     145.781
  O      196.865      27.261     142.740
  O      199.292      26.448     143.240
  H      195.998      26.922     142.458
  H      194.631      25.727     149.749
  H      189.266      26.283     148.619
  H      190.011      25.955     144.494
  H      192.404      26.369     144.987
  H      193.669      27.540     148.085
  H      193.954      24.583     147.265
  H      196.344      24.925     147.458
  H      196.281      27.453     146.248
  H      195.500      24.760     145.118
  H      195.357      26.204     144.105
  P      197.466      26.192     149.431
  C      195.918      25.473     151.419
  O      196.904      25.117     150.478
  O      197.701      27.495     150.350
  O      198.685      25.807     148.654
  H      196.878      27.829     150.744
  H      195.440      24.561     151.793
  H      195.150      26.111     150.973
  H      196.382      25.993     152.263
  H      197.684      22.937     141.766
  H      197.793      23.279     143.476
  H      199.108      23.717     142.412

 3  4  5  6  7  8  9  10  11  12  13  24  28  29  30  31  32 0
 6-311+G(2d,p)
 ****
 33  34 0
 6-311+G(2d,p)
 ****
 1  2  14  15  16  17  18  19  20  21  22  23  25  26  27 0
 3-21G
 ****
 35  36  37  38  39  40  41  42  43  44  45 0
 3-21G
 ****


