%nproc=1
%NoSave
%Mem=1900MB
#P OB98/GEN NMR

erre ene a

0 1
  C      201.733      17.027     282.268
  O      202.834      16.272     281.753
  P      202.499      15.113     280.687
  C      202.267      12.511     280.874
  O      202.330      13.762     281.546
  C      201.222      11.594     281.526
  O      201.547      11.406     282.939
  C      199.777      12.116     281.444
  O      198.935      10.969     281.251
  C      199.546      12.713     282.822
  O      198.164      12.802     283.140
  C      200.353      11.737     283.689
  N      200.683      12.287     285.005
  C      199.834      11.945     286.057
  O      198.808      11.284     285.906
  N      200.192      12.435     287.287
  C      201.237      13.276     287.547
  O      201.507      13.683     288.671
  C      202.024      13.691     286.374
  C      201.712      13.184     285.181
  O      203.907      14.942     279.950
  O      201.353      15.457     279.793
  H      204.672      15.043     280.545
  H      197.769      13.537     282.629
  H      199.605      12.172     288.077
  H      202.827      14.402     286.534
  H      202.256      13.488     284.294
  H      199.791      10.804     283.837
  H      199.982      13.720     282.867
  H      199.629      12.829     280.623
  H      201.290      10.606     281.049
  H      203.244      12.019     280.916
  H      202.039      12.684     279.815
  P      198.220      10.786     279.819
  C      195.979      11.652     278.761
  O      196.770      11.468     279.917
  O      197.880       9.211     279.873
  O      199.058      11.151     278.635
  H      197.475       8.942     280.713
  H      194.959      11.903     279.072
  H      195.944      10.741     278.162
  H      196.382      12.474     278.165
  H      202.095      17.758     282.961
  H      201.052      16.369     282.767
  H      201.229      17.518     281.462

 3  4  5  6  7  8  9  10  11  12  13  24  28  29  30  31  32 0
 6-311+G(2d,p)
 ****
 33  34 0
 6-311+G(2d,p)
 ****
 1  2  14  15  16  17  18  19  20  21  22  23  25  26  27 0
 3-21G
 ****
 35  36  37  38  39  40  41  42  43  44  45 0
 3-21G
 ****


