%nproc=1
%NoSave
%Mem=1900MB
#P OB98/GEN NMR

erre ene a

0 1
  C      -35.509       7.074     -72.952
  O      -35.018       8.399     -73.159
  P      -33.632       8.609     -73.936
  C      -34.258       7.754     -76.287
  O      -33.941       8.883     -75.487
  C      -34.795       8.184     -77.661
  O      -36.151       8.688     -77.522
  C      -33.948       9.282     -78.318
  O      -33.573       8.973     -79.660
  C      -34.787      10.535     -78.136
  O      -34.488      11.546     -79.085
  C      -36.219       9.986     -78.140
  N      -37.151      10.881     -77.449
  C      -37.559      12.013     -78.141
  O      -37.118      12.320     -79.249
  N      -38.451      12.825     -77.494
  C      -38.901      12.659     -76.218
  O      -39.664      13.440     -75.665
  C      -38.386      11.477     -75.509
  C      -37.549      10.657     -76.148
  O      -32.579       7.587     -73.672
  O      -33.154      10.056     -73.425
  H      -35.291      12.099     -79.211
  H      -32.184      10.028     -73.308
  H      -38.770      13.642     -77.992
  H      -38.705      11.325     -74.489
  H      -37.145       9.788     -75.647
  H      -36.588       9.860     -79.163
  H      -34.574      10.951     -77.143
  H      -32.991       9.411     -77.800
  H      -34.821       7.291     -78.293
  H      -35.016       7.153     -75.783
  H      -33.373       7.114     -76.379
  P      -32.101       9.163     -80.256
  C      -31.366       6.748     -79.671
  O      -31.539       7.726     -80.678
  O      -31.168       9.987     -79.434
  O      -32.373       9.880     -81.664
  H      -31.694      10.564     -81.812
  H      -30.658       5.998     -80.032
  H      -32.324       6.260     -79.470
  H      -30.977       7.189     -78.750
  H      -36.437       7.116     -72.422
  H      -34.797       6.515     -72.381
  H      -35.660       6.598     -73.898

 3  4  5  6  7  8  9  10  11  12  13  23  28  29  30  31  32 0
 6-311+G(2d,p)
 ****
 33  34 0
 6-311+G(2d,p)
 ****
 1  2  14  15  16  17  18  19  20  21  22  24  25  26  27 0
 3-21G
 ****
 35  36  37  38  39  40  41  42  43  44  45 0
 3-21G
 ****


