%nproc=1
%NoSave
%Mem=1900MB
#P OB98/GEN NMR

erre ene a

0 1
  C     -108.360    -554.334      72.447
  O     -107.277    -553.463      72.178
  H     -109.266    -553.736      72.574
  H     -108.170    -554.895      73.366
  H     -108.505    -555.024      71.611
  P     -105.850    -554.154      71.939
  C     -104.328    -552.351      73.054
  O     -104.788    -552.954      71.853
  C     -103.546    -551.070      72.741
  O     -102.416    -551.411      71.885
  C     -104.364    -550.003      71.996
  O     -103.836    -548.712      72.344
  C     -104.027    -550.317      70.547
  O     -104.415    -549.261      69.697
  C     -102.534    -550.603      70.690
  N      -98.277    -551.301      67.952
  C      -98.516    -550.598      69.076
  N      -99.672    -550.469      69.754
  C     -100.651    -551.184      69.170
  C     -100.554    -551.957      68.025
  C      -99.297    -551.998      67.396
  N      -99.053    -552.708      66.245
  N     -101.776    -552.536      67.726
  C     -102.589    -552.122      68.678
  N     -101.954    -551.297      69.565
  O     -105.946    -554.689      70.437
  O     -105.494    -555.238      72.902
  H     -103.805    -548.498      69.787
  H     -106.215    -555.628      70.435
  H      -97.659    -550.063      69.487
  H     -103.637    -552.378      68.764
  H     -101.959    -549.684      70.851
  H     -104.566    -551.208      70.204
  H     -105.435    -550.037      72.226
  H     -103.127    -550.673      73.673
  H     -103.681    -553.066      73.575
  H     -105.184    -552.110      73.691
  H      -98.128    -552.677      65.850
  H      -99.809    -553.219      65.813
  P     -104.855    -547.541      72.766
  C     -103.135    -545.585      72.496
  O     -104.007    -546.311      73.355
  O     -105.525    -548.144      74.096
  O     -105.899    -547.195      71.758
  H     -106.423    -547.775      74.200
  H     -102.654    -544.807      73.051
  H     -103.700    -545.156      71.695
  H     -102.395    -546.247      72.096

 6  7  8  9  10  11  12  13  14  15  25  28  32  33  34  35 0
 6-311+G(2d,p)
 ****
 36  37  40 0
 6-311+G(2d,p)
 ****
 1  2  3  4  5  16  17  18  19  20  21  22  23  24 0
 3-21G
 ****
 26  27  29  30  31  38  39 41  42  43  44  45  46  47  48 0
 3-21G
 ****


