%nproc=1
%NoSave
%Mem=1900MB
#P OB98/GEN NMR

erre ene a

0 1
  C     -184.546     -34.263     143.626
  O     -184.112     -32.921     143.505
  H     -183.771     -34.919     143.224
  H     -185.468     -34.410     143.058
  H     -184.712     -34.513     144.676
  P     -185.112     -31.796     144.059
  C     -183.699     -31.515     146.232
  O     -184.961     -31.817     145.656
  C     -183.703     -31.840     147.731
  O     -184.008     -33.258     147.901
  C     -182.355     -31.593     148.426
  O     -182.622     -31.271     149.803
  C     -181.705     -32.963     148.341
  O     -180.594     -33.052     149.202
  C     -182.918     -33.836     148.652
  N     -180.621     -38.236     149.887
  C     -180.645     -37.029     150.498
  N     -181.289     -35.910     150.116
  C     -181.982     -36.121     148.984
  C     -182.060     -37.295     148.252
  C     -181.331     -38.391     148.746
  N     -181.297     -39.617     148.121
  N     -182.868     -37.126     147.142
  C     -183.270     -35.873     147.205
  N     -182.754     -35.226     148.295
  O     -186.557     -32.430     143.804
  O     -184.974     -30.450     143.432
  H     -180.188     -33.943     149.157
  H     -186.921     -32.103     142.960
  H     -180.066     -36.958     151.415
  H     -183.920     -35.381     146.490
  H     -183.188     -33.796     149.714
  H     -181.335     -33.156     147.329
  H     -181.773     -30.788     147.970
  H     -184.513     -31.283     148.215
  H     -183.496     -30.449     146.085
  H     -182.921     -32.104     145.735
  H     -180.738     -40.347     148.529
  H     -181.809     -39.744     147.259
  P     -183.237     -29.828     150.165
  C     -185.705     -30.646     150.459
  O     -184.790     -29.815     149.760
  O     -182.591     -28.898     149.027
  O     -182.908     -29.308     151.526
  H     -182.511     -27.984     149.362
  H     -186.688     -30.509     150.059
  H     -185.703     -30.385     151.497
  H     -185.414     -31.670     150.348

 6  7  8  9  10  11  12  13  14  15  25  28  32  33  34  35 0
 6-311+G(2d,p)
 ****
 36  37  40 0
 6-311+G(2d,p)
 ****
 1  2  3  4  5  16  17  18  19  20  21  22  23  24 0
 3-21G
 ****
 26  27  29  30  31  38  39 41  42  43  44  45  46  47  48 0
 3-21G
 ****


