%nproc=1
%NoSave
%Mem=1900MB
#P OB98/GEN NMR

erre ene a

0 1
  C     -897.000    -410.888     221.241
  O     -896.770    -411.718     220.103
  P     -896.440    -411.022     218.695
  C     -894.600    -412.303     217.424
  O     -896.000    -412.158     217.677
  C     -894.210    -413.770     217.258
  O     -894.460    -414.534     218.452
  C     -894.980    -414.478     216.152
  O     -894.540    -414.072     214.860
  C     -894.740    -415.939     216.492
  O     -893.480    -416.381     215.991
  C     -894.720    -415.921     218.043
  N     -895.930    -416.420     218.654
  C     -895.860    -417.702     219.178
  O     -894.810    -418.374     219.078
  N     -896.970    -418.230     219.794
  C     -898.070    -417.523     219.871
  N     -899.150    -418.103     220.500
  C     -898.170    -416.174     219.318
  C     -897.090    -415.676     218.728
  O     -895.550    -409.820     218.749
  O     -897.920    -410.631     218.159
  H     -892.850    -415.647     216.146
  H     -897.850    -409.843     217.597
  H     -899.120    -415.622     219.434
  H     -897.100    -414.682     218.300
  H     -893.890    -416.507     218.423
  H     -895.510    -416.592     216.075
  H     -896.070    -414.239     216.263
  H     -893.140    -413.815     217.040
  H     -899.020    -419.046     220.862
  H     -894.040    -411.882     218.277
  H     -900.000    -417.618     220.664
  H     -894.340    -411.721     216.541
  P     -895.400    -412.959     214.072
  C     -893.090    -412.492     212.949
  O     -894.510    -412.477     212.832
  O     -895.340    -411.703     215.066
  O     -896.810    -413.354     213.770
  H     -896.180    -411.208     215.020
  H     -892.660    -412.431     211.949
  H     -892.750    -413.425     213.423
  H     -892.760    -411.629     213.538
  H     -897.205    -411.501     222.094
  H     -897.836    -410.248     221.052
  H     -896.131    -410.293     221.430

 3  4  5  6  7  8  9  10  11  12  13  23  27  28  29  30  32 0
 6-311+G(2d,p)
 ****
 34  35 0
 6-311+G(2d,p)
 ****
 1  2  14  15  16  17  18  19  20  21  22  24  25  26 0
 3-21G
 ****
 31  33  36  37  38  39  40  41  42  43  44  45  46 0
 3-21G
 ****


