%nproc=1
%NoSave
%Mem=1900MB
#P OB98/GEN NMR

erre ene a

0 1
  C       51.870      29.391     -24.251
  O       53.097      30.087     -24.233
  H       51.576      29.231     -25.291
  H       51.100      29.990     -23.756
  H       51.954      28.420     -23.757
  P       53.971      30.070     -22.893
  C       52.208      31.359     -21.520
  O       53.542      31.342     -22.012
  C       51.836      32.718     -20.927
  O       50.427      32.756     -20.610
  C       52.572      33.001     -19.617
  O       53.874      33.540     -19.757
  C       51.636      34.001     -18.944
  O       51.908      35.340     -19.392
  C       50.255      33.546     -19.421
  N       47.740      33.589     -14.975
  C       48.399      34.623     -15.610
  N       48.443      35.800     -14.948
  N       48.976      34.500     -16.776
  C       48.934      33.242     -17.274
  C       48.323      32.135     -16.729
  C       47.639      32.295     -15.462
  O       47.046      31.410     -14.854
  N       48.487      31.027     -17.525
  C       49.259      31.446     -18.508
  N       49.535      32.790     -18.413
  O       55.438      30.479     -23.397
  O       53.998      28.763     -22.162
  H       51.812      35.364     -20.361
  H       56.110      30.114     -22.793
  H       47.289      33.748     -14.091
  H       49.622      30.829     -19.322
  H       49.623      34.401     -19.694
  H       51.758      34.001     -17.857
  H       48.116      35.909     -14.001
  H       52.611      32.099     -18.999
  H       49.132      36.492     -15.249
  H       52.022      33.500     -21.672
  H       52.147      30.587     -20.750
  H       51.508      31.083     -22.313
  P       55.100      32.889     -18.960
  C       55.190      34.643     -17.040
  O       55.825      34.077     -18.166
  O       56.130      32.527     -20.129
  O       54.753      31.697     -18.137
  H       56.034      31.591     -20.385
  H       55.807      35.417     -16.634
  H       55.034      33.886     -16.300
  H       54.247      35.056     -17.332

 6  7  8  9  10  11  12  13  14  15  26  29  33  34 0
 6-311+G(2d,p)
 ****
 36  38  39  40  41 0
 6-311+G(2d,p)
 ****
 1  2  3  4  5  16  17  18  19  20  21  22  23  24  25 0
 3-21G
 ****
 27  28  30  31  32  35  37  42  43  44  45  46  47 0
 3-21G
 ****
 48  49 0
 3-21G
 ****


