%nproc=1
%NoSave
%Mem=1900MB
#P OB98/GEN NMR

erre ene a

0 1
  C      561.439     459.972     969.356
  O      561.743     458.592     969.359
  H      561.669     460.391     968.367
  H      562.049     460.498     970.096
  H      560.377     460.129     969.560
  P      561.492     457.748     970.697
  C      564.007     458.228     971.199
  O      562.969     457.250     971.127
  C      565.106     457.755     972.133
  O      564.611     457.517     973.471
  C      565.767     456.437     971.729
  O      566.632     456.557     970.608
  C      566.523     456.118     973.006
  O      567.683     456.946     973.103
  C      565.471     456.492     974.077
  N      564.665     455.355     974.532
  C      565.272     454.477     975.431
  O      566.416     454.685     975.825
  N      564.569     453.365     975.849
  C      563.354     453.147     975.392
  N      562.722     452.043     975.848
  C      562.700     454.044     974.434
  C      563.405     455.111     974.029
  O      560.453     456.678     970.619
  O      561.196     458.857     971.818
  H      567.989     456.905     974.032
  H      561.024     458.386     972.669
  H      561.711     453.797     974.050
  H      562.965     455.805     973.310
  H      565.943     456.952     974.960
  H      566.854     455.078     973.072
  H      564.997     455.660     971.562
  H      565.860     458.565     972.212
  H      563.196     451.447     976.516
  H      563.553     459.168     971.558
  H      561.807     451.750     975.500
  H      564.425     458.396     970.204
  P      566.188     455.772     969.260
  C      567.031     453.398     969.975
  O      567.189     454.522     969.130
  O      566.642     456.775     968.095
  O      564.727     455.421     969.194
  H      565.867     457.304     967.774
  H      567.782     452.671     969.746
  H      566.062     452.970     969.822
  H      567.129     453.703     970.996

 6  7  8  9  10  11  12  13  14  15  16  26  30  31  32  33  35 0
 6-311+G(2d,p)
 ****
 37  38 0
 6-311+G(2d,p)
 ****
 1  2  3  4  5  17  18  19  20  21  22  23  24  25 0
 3-21G
 ****
 27  28  29  34  36  39  40  41  42  43  44  45  46 0
 3-21G
 ****


