%nproc=1
%NoSave
%Mem=1900MB
#P OB98/GEN NMR

erre ene a

0 1
  C       45.974      33.263    -162.833
  O       47.086      32.454    -162.509
  H       46.136      33.764    -163.792
  H       45.086      32.628    -162.915
  H       45.806      34.008    -162.048
  P       48.505      33.193    -162.378
  C       49.611      32.163    -164.497
  O       49.054      33.317    -163.883
  C       50.814      32.573    -165.341
  O       50.435      33.607    -166.278
  C       51.967      33.151    -164.527
  O       52.783      32.148    -163.950
  C       52.715      33.918    -165.604
  O       53.471      33.003    -166.417
  C       51.557      34.521    -166.415
  N       53.159      39.268    -165.350
  C       53.801      38.189    -165.852
  N       53.299      36.967    -166.125
  C       51.988      36.919    -165.842
  C       51.197      37.938    -165.334
  C       51.837      39.163    -165.080
  N       51.192      40.256    -164.541
  N       49.899      37.501    -165.154
  C       49.905      36.249    -165.563
  N       51.153      35.841    -165.957
  O       49.459      32.079    -161.739
  O       48.505      34.475    -161.612
  H       52.828      32.472    -166.924
  H       50.283      32.485    -161.409
  H       54.861      38.324    -166.054
  H       49.041      35.596    -165.584
  H       51.789      34.606    -167.484
  H       53.422      34.643    -165.192
  H       51.608      33.857    -163.768
  H       51.141      31.700    -165.922
  H       48.853      31.698    -165.138
  H       51.766      41.033    -164.258
  H       50.249      40.142    -164.199
  H       49.917      31.450    -163.725
  P       53.121      32.277    -162.384
  C       55.189      33.730    -162.988
  O       53.997      33.611    -162.217
  O       54.184      31.104    -162.149
  O       51.938      32.159    -161.479
  H       54.105      30.737    -161.247
  H       55.662      34.665    -162.771
  H       54.946      33.686    -164.029
  H       55.854      32.929    -162.742

 6  7  8  9  10  11  12  13  14  15  25  28  32  33  34  35 0
 6-311+G(2d,p)
 ****
 36  39  40 0
 6-311+G(2d,p)
 ****
 1  2  3  4  5  16  17  18  19  20  21  22  23  24 0
 3-21G
 ****
 26  27  29  30  31  37  38  41  42  43  44  45  46  47 0
 3-21G
 ****
 48 0
 3-21G
 ****


