%nproc=1
%NoSave
%Mem=1900MB
#P OB98/GEN NMR

erre ene a

0 1
  C      535.023     625.168    -553.741
  O      535.901     624.443    -552.905
  H      534.202     625.549    -553.134
  H      534.614     624.512    -554.513
  H      535.539     626.014    -554.205
  P      537.287     623.911    -553.519
  C      537.102     621.368    -553.137
  O      537.683     622.590    -552.698
  C      537.873     620.186    -552.546
  O      539.173     620.076    -553.163
  C      538.146     620.322    -551.046
  O      536.989     620.066    -550.282
  C      539.271     619.314    -550.876
  O      538.761     617.984    -550.751
  C      540.060     619.478    -552.192
  N      541.264     620.289    -552.013
  C      542.250     619.746    -551.194
  O      542.150     618.653    -550.635
  N      543.343     620.545    -550.968
  C      543.466     621.849    -551.358
  O      544.347     622.600    -550.933
  C      542.432     622.341    -552.277
  C      541.392     621.558    -552.547
  O      538.372     624.931    -553.640
  O      536.868     623.328    -554.949
  H      537.112     623.972    -555.642
  H      538.399     617.919    -549.843
  H      544.038     620.177    -550.333
  H      542.538     623.344    -552.669
  H      540.591     621.907    -553.199
  H      540.344     618.498    -552.596
  H      539.866     619.528    -549.977
  H      538.530     621.329    -550.832
  H      537.313     619.267    -552.762
  H      537.160     621.323    -554.232
  H      536.053     621.343    -552.833
  P      536.151     621.279    -549.652
  C      535.141     619.704    -547.876
  O      534.870     620.667    -548.894
  O      535.851     622.403    -550.584
  O      537.069     621.786    -548.432
  H      537.172     622.750    -548.491
  H      534.220     619.371    -547.446
  H      535.749     620.150    -547.116
  H      535.658     618.870    -548.303

 6  7  8  9  10  11  12  13  14  15  16  27  31  32  33  34  35 0
 6-311+G(2d,p)
 ****
 36  37 0
 6-311+G(2d,p)
 ****
 1  2  3  4  5  17  18  19  20  21  22  23  24  25 0
 3-21G
 ****
 26  28  29  30  38  39  40  41  42  43  44  45 0
 3-21G
 ****


