%nproc=1
%NoSave
%Mem=1900MB
#P OB98/GEN NMR

erre ene a

0 1
  C      811.457    -143.998    -251.539
  O      810.759    -143.087    -252.370
  P      809.744    -141.992    -251.806
  C      807.820    -142.012    -250.045
  O      808.576    -142.754    -251.002
  C      806.409    -142.569    -249.829
  O      805.675    -142.506    -251.068
  C      806.477    -144.054    -249.452
  O      806.712    -144.436    -248.111
  C      805.247    -144.685    -250.100
  O      804.169    -144.835    -249.169
  C      804.870    -143.694    -251.192
  N      804.013    -147.591    -254.335
  C      803.441    -147.314    -253.107
  N      802.671    -148.304    -252.579
  N      803.608    -146.185    -252.466
  C      804.475    -145.339    -253.073
  C      805.097    -145.499    -254.291
  C      804.877    -146.728    -255.005
  O      805.430    -147.054    -256.059
  N      805.968    -144.466    -254.555
  C      805.888    -143.698    -253.490
  N      805.037    -144.215    -252.547
  O      809.363    -140.885    -252.730
  O      810.607    -141.339    -250.607
  H      804.505    -145.383    -248.422
  H      810.373    -140.392    -250.556
  H      803.914    -148.515    -254.746
  H      806.465    -142.797    -253.330
  H      803.830    -143.379    -251.094
  H      805.486    -145.693    -250.467
  H      802.638    -149.230    -252.975
  H      807.334    -144.479    -250.002
  H      802.375    -148.197    -251.614
  H      805.851    -141.958    -249.116
  H      807.782    -140.973    -250.392
  H      808.359    -142.010    -249.088
  P      807.606    -145.666    -247.620
  C      807.542    -148.225    -247.676
  O      806.824    -147.020    -247.925
  O      807.545    -145.576    -246.012
  O      809.031    -145.639    -248.080
  H      808.318    -146.040    -245.633
  H      807.044    -149.048    -248.196
  H      807.536    -148.428    -246.603
  H      808.568    -148.148    -248.032
  H      812.074    -144.630    -252.142
  H      810.755    -144.597    -250.998
  H      812.069    -143.455    -250.850

 3  4  5  6  7  8  9  10  11  12  23  26  30  31 0
 6-311+G(2d,p)
 ****
 33  35  36  37  38 0
 6-311+G(2d,p)
 ****
 1  2  13  14  15  16  17  18  19  20  21  22  24  25 0
 3-21G
 ****
 27  28  29  32  34  39  40  41  42  43  44  45  46  47  48  49 0
 3-21G
 ****


