%nproc=1
%NoSave
%Mem=1900MB
#P OB98/GEN NMR

erre ene a

0 1
  C       12.330     278.691     105.597
  O       12.192     277.285     105.600
  H       11.642     279.109     104.858
  H       13.349     278.963     105.315
  H       12.088     279.112     106.577
  P       12.873     276.438     106.776
  C       10.727     275.057     107.166
  O       12.103     275.031     106.812
  C       10.013     273.824     106.603
  O        9.904     273.984     105.156
  C       10.762     272.504     106.873
  O        9.799     271.461     107.058
  C       11.501     272.303     105.565
  O       11.899     270.968     105.386
  C       10.463     272.799     104.563
  N       11.059     273.054     103.256
  C       10.712     272.188     102.224
  O        9.949     271.232     102.364
  N       11.329     272.406     101.023
  C       12.321     273.313     100.792
  O       12.895     273.411      99.715
  C       12.687     274.167     101.932
  C       12.047     274.005     103.092
  O       12.979     277.123     108.099
  O       14.303     276.021     106.190
  H       11.176     270.366     105.643
  H       14.916     275.796     106.915
  H       11.078     271.793     100.262
  H       13.482     274.887     101.785
  H       12.303     274.605     103.960
  H        9.650     272.068     104.450
  H       12.401     272.930     105.540
  H       11.427     272.557     107.740
  H        8.993     273.789     107.000
  H       10.282     275.968     106.748
  H       10.629     275.083     108.257
  P        9.365     270.958     108.520
  C        6.908     270.581     107.872
  O        8.080     269.991     108.425
  O        9.228     272.053     109.530
  O       10.542     269.961     108.957
  H       10.802     270.160     109.877
  H        6.119     269.858     107.855
  H        7.111     270.911     106.875
  H        6.613     271.417     108.471

 6  7  8  9  10  11  12  13  14  15  16  26  31  32  33  34  35 0
 6-311+G(2d,p)
 ****
 36  37 0
 6-311+G(2d,p)
 ****
 1  2  3  4  5  17  18  19  20  21  22  23  24  25 0
 3-21G
 ****
 27  28  29  30  38  39  40  41  42  43  44  45 0
 3-21G
 ****


