%nproc=1
%NoSave
%Mem=1900MB
#P OB98/GEN NMR

erre ene a

0 1
  C       37.381     298.882    -446.052
  O       36.904     297.568    -446.288
  P       37.991     296.392    -446.403
  C       37.126     295.547    -444.093
  O       38.249     295.864    -444.906
  C       37.026     294.033    -443.908
  O       36.706     293.380    -445.159
  C       38.316     293.372    -443.429
  O       38.498     293.502    -442.035
  C       38.053     291.927    -443.810
  O       37.216     291.306    -442.813
  C       37.299     292.063    -445.133
  N       38.755     288.902    -448.808
  C       37.697     288.796    -447.921
  N       36.965     287.662    -447.978
  N       37.387     289.722    -447.047
  C       38.225     290.803    -447.099
  C       39.288     291.022    -447.943
  C       39.620     289.980    -448.878
  O       40.572     289.978    -449.664
  N       39.869     292.228    -447.699
  C       39.164     292.754    -446.715
  N       38.171     291.906    -446.282
  O       39.339     297.172    -446.763
  O       37.667     295.333    -447.416
  H       37.764     291.171    -442.022
  H       40.006     296.551    -447.113
  H       38.959     288.155    -449.446
  H       39.336     293.725    -446.278
  H       36.488     291.336    -445.219
  H       38.972     291.331    -443.864
  H       37.192     286.883    -448.579
  H       39.175     293.748    -443.992
  H       36.231     287.539    -447.291
  H       36.204     293.835    -443.208
  H       36.217     295.916    -444.576
  H       37.234     296.045    -443.128
  P       39.966     293.200    -441.465
  C       40.838     295.633    -441.757
  O       40.927     294.277    -442.168
  O       40.361     291.825    -442.189
  O       40.050     293.102    -439.977
  H       41.003     291.329    -441.646
  H       41.719     296.170    -442.129
  H       40.812     295.717    -440.661
  H       39.938     296.090    -442.187
  H       36.553     299.558    -445.999
  H       38.030     299.175    -446.851
  H       37.920     298.905    -445.128

 3  4  5  6  7  8  9  10  11  12  23  26  30  31 0
 6-311+G(2d,p)
 ****
 33  35  36  37  38 0
 6-311+G(2d,p)
 ****
 1  2  13  14  15  16  17  18  19  20  21  22  24  25 0
 3-21G
 ****
 27  28  29  32  34  39  40  41  42  43  44  45  46  47  48  49 0
 3-21G
 ****


