%nproc=1
%NoSave
%Mem=1900MB
#P OB98/GEN NMR

erre ene a

0 1
  C      -89.944     153.580    -125.791
  O      -91.138     154.340    -125.935
  P      -91.673     154.608    -127.427
  C      -90.230     156.700    -127.967
  O      -90.457     155.314    -128.200
  C      -89.870     157.409    -129.270
  O      -88.561     156.996    -129.715
  C      -90.808     157.120    -130.431
  O      -91.981     157.919    -130.385
  C      -89.939     157.522    -131.611
  O      -89.948     158.955    -131.757
  C      -88.554     157.041    -131.167
  N      -86.260     154.551    -134.999
  C      -86.510     155.863    -134.802
  N      -87.134     156.447    -133.755
  C      -87.558     155.522    -132.879
  C      -87.411     154.149    -132.968
  C      -86.716     153.660    -134.085
  N      -86.439     152.324    -134.272
  N      -87.978     153.530    -131.875
  C      -88.451     154.510    -131.133
  N      -88.211     155.736    -131.693
  O      -92.723     155.801    -127.224
  O      -92.286     153.428    -128.099
  H      -89.528     159.155    -132.616
  H      -93.366     155.808    -127.959
  H      -86.149     156.532    -135.576
  H      -88.959     154.381    -130.189
  H      -87.758     157.736    -131.463
  H      -90.291     157.103    -132.561
  H      -91.044     156.050    -130.496
  H      -89.830     158.488    -129.066
  H      -89.408     156.813    -127.259
  H      -85.782     152.075    -134.996
  H      -86.602     151.691    -133.498
  H      -91.135     157.141    -127.532
  P      -93.262     157.365    -131.181
  C      -93.077     158.147    -133.651
  O      -92.767     157.156    -132.690
  O      -94.221     158.646    -131.257
  O      -93.925     156.197    -130.531
  H      -95.150     158.371    -131.344
  H      -92.423     158.012    -134.515
  H      -92.923     159.152    -133.248
  H      -94.115     158.033    -133.975
  H      -89.707     153.481    -124.752
  H      -89.141     154.078    -126.294
  H      -90.085     152.610    -126.219

 3  4  5  6  7  8  9  10  11  12  22  25  29  30  31  32 0
 6-311+G(2d,p)
 ****
 33  36  37 0
 6-311+G(2d,p)
 ****
 1  2  13  14  15  16  17  18  19  20  21  23  24  26 0
 3-21G
 ****
 27  28  34  35  38  39  40  41  42  43  44  45  46  47  48 0
 3-21G
 ****


