%nproc=1
%NoSave
%Mem=1900MB
#P OB98/GEN NMR

erre ene a

0 1
  C     -197.204    -322.736    -197.175
  O     -196.426    -322.325    -198.310
  P     -196.934    -321.005    -199.081
  C     -198.727    -322.490    -200.221
  O     -198.450    -321.279    -199.543
  C     -200.228    -322.621    -200.551
  O     -200.618    -321.615    -201.537
  C     -200.625    -323.997    -201.101
  O     -201.953    -324.285    -200.613
  C     -200.669    -323.739    -202.607
  O     -201.337    -324.745    -203.337
  C     -201.270    -322.345    -202.617
  N     -202.802    -322.195    -207.485
  C     -203.123    -323.026    -206.468
  N     -202.666    -323.006    -205.194
  C     -201.790    -321.984    -205.022
  C     -201.374    -321.068    -205.969
  C     -201.908    -321.193    -207.258
  N     -201.576    -320.371    -208.316
  N     -200.439    -320.182    -205.418
  C     -200.271    -320.636    -204.184
  N     -201.112    -321.657    -203.874
  O     -196.105    -321.021    -200.438
  O     -196.732    -319.753    -198.296
  H     -201.211    -324.603    -204.291
  H     -195.351    -320.419    -200.384
  H     -203.836    -323.806    -206.699
  H     -199.548    -320.241    -203.474
  H     -202.355    -322.369    -202.389
  H     -199.630    -323.707    -202.994
  H     -199.944    -324.807    -200.811
  H     -200.795    -322.415    -199.632
  H     -198.423    -323.342    -199.602
  H     -202.009    -320.556    -209.209
  H     -200.907    -319.638    -208.194
  H     -198.124    -322.541    -201.137
  P     -202.101    -325.055    -199.213
  C     -202.902    -327.436    -199.727
  O     -201.775    -326.591    -199.553
  O     -203.697    -325.099    -199.080
  O     -201.401    -324.447    -198.048
  H     -204.118    -325.427    -199.896
  H     -202.530    -328.430    -200.037
  H     -203.556    -327.051    -200.510
  H     -203.440    -327.542    -198.779
  H     -196.773    -323.617    -196.748
  H     -198.206    -322.944    -197.486
  H     -197.212    -321.953    -196.446

 3  4  5  6  7  8  9  10  11  12  22  25  29  30  31  32 0
 6-311+G(2d,p)
 ****
 33  36  37 0
 6-311+G(2d,p)
 ****
 1  2  13  14  15  16  17  18  19  20  21  23  24  26 0
 3-21G
 ****
 27  28  34  35  38  39  40  41  42  43  44  45  46  47  48 0
 3-21G
 ****


