%nproc=1
%NoSave
%Mem=1900MB
#P OB98/GEN NMR

erre ene a

0 1
  C      483.727     178.276     551.962
  O      482.403     178.435     551.455
  P      482.113     178.501     549.875
  C      482.849     180.973     549.622
  O      483.112     179.615     549.308
  C      483.182     181.860     548.418
  O      482.816     183.230     548.769
  C      484.670     181.869     548.027
  O      484.716     182.003     546.596
  C      485.203     183.111     548.704
  O      486.400     183.592     548.101
  C      483.997     184.052     548.573
  N      484.028     185.150     549.543
  C      484.599     186.343     549.133
  O      485.069     186.488     548.002
  N      484.609     187.414     550.018
  C      484.184     187.242     551.235
  N      484.177     188.326     552.051
  C      483.679     185.946     551.736
  C      483.621     184.968     550.840
  O      480.673     178.695     549.519
  O      482.750     177.155     549.301
  H      487.112     182.946     548.282
  H      482.132     176.370     549.362
  H      483.365     185.844     552.764
  H      483.232     183.984     551.116
  H      483.940     184.463     547.545
  H      485.417     182.891     549.764
  H      485.181     180.953     548.326
  H      482.556     181.563     547.574
  H      484.342     189.223     551.621
  H      483.477     181.265     550.467
  H      483.559     188.357     552.867
  H      481.795     181.074     549.916
  P      485.791     181.111     545.783
  C      487.488     183.050     545.436
  O      487.245     181.775     545.997
  O      485.454     181.502     544.270
  O      485.699     179.632     545.967
  H      485.736     180.781     543.690
  H      488.520     183.345     545.682
  H      486.806     183.800     545.861
  H      487.392     183.022     544.339
  H      483.699     178.256     553.031
  H      484.334     179.094     551.636
  H      484.140     177.358     551.599

 3  4  5  6  7  8  9  10  11  12  13  23  27  28  29  30  32 0
 6-311+G(2d,p)
 ****
 34  35 0
 6-311+G(2d,p)
 ****
 1  2  14  15  16  17  18  19  20  21  22  24  25  26 0
 3-21G
 ****
 31  33  36  37  38  39  40  41  42  43  44  45  46 0
 3-21G
 ****


