%nproc=1
%NoSave
%Mem=1900MB
#P OB98/GEN NMR

erre ene a

0 1
  C     -266.270     376.780    -164.966
  O     -266.576     376.808    -166.350
  P     -266.200     375.565    -167.296
  C     -264.563     375.197    -169.246
  O     -264.884     375.996    -168.110
  C     -263.732     375.995    -170.246
  O     -264.557     377.045    -170.812
  C     -262.509     376.668    -169.622
  O     -261.437     376.644    -170.570
  C     -262.934     378.109    -169.419
  O     -261.801     378.994    -169.416
  C     -263.909     378.307    -170.585
  N     -266.305     382.503    -172.324
  C     -265.352     381.714    -172.878
  N     -264.744     380.633    -172.348
  C     -265.249     380.351    -171.137
  C     -266.222     381.056    -170.449
  C     -266.759     382.189    -171.089
  N     -267.737     382.982    -170.527
  N     -266.457     380.481    -169.215
  C     -265.662     379.439    -169.174
  N     -264.918     379.310    -170.313
  O     -267.316     375.057    -168.142
  O     -265.655     374.449    -166.291
  H     -261.270     378.786    -170.211
  H     -265.952     373.561    -166.578
  H     -265.035     381.998    -173.878
  H     -265.575     378.755    -168.343
  H     -263.381     378.585    -171.507
  H     -263.447     378.210    -168.450
  H     -262.191     376.190    -168.682
  H     -263.434     375.328    -171.065
  H     -265.496     374.882    -169.722
  H     -268.143     383.692    -171.109
  H     -268.197     382.649    -169.688
  H     -264.020     374.300    -168.917
  P     -260.054     376.003    -170.047
  C     -258.620     376.948    -168.084
  O     -259.895     376.548    -168.548
  O     -258.923     376.267    -170.991
  O     -260.458     374.463    -169.902
  H     -261.428     374.356    -169.767
  H     -258.709     377.244    -167.036
  H     -258.261     377.803    -168.664
  H     -257.910     376.122    -168.166
  H     -266.596     377.691    -164.510
  H     -265.213     376.675    -164.836
  H     -266.770     375.953    -164.507

 3  4  5  6  7  8  9  10  11  12  22  25  29  30  31  32 0
 6-311+G(2d,p)
 ****
 33  36  37 0
 6-311+G(2d,p)
 ****
 1  2  13  14  15  16  17  18  19  20  21  23  24  26 0
 3-21G
 ****
 27  28  34  35  38  39  40  41  42  43  44  45  46  47  48 0
 3-21G
 ****


