%nproc=1
%NoSave
%Mem=1900MB
#P OB98/GEN NMR

erre ene a

0 1
  C     -254.611    -375.344      58.988
  O     -255.282    -374.848      60.129
  H     -253.598    -374.927      58.967
  H     -255.133    -375.047      58.076
  H     -254.542    -376.436      59.041
  P     -256.829    -375.220      60.330
  C     -257.533    -373.325      58.714
  O     -257.598    -374.712      59.015
  C     -258.814    -372.862      58.001
  O     -258.798    -373.366      56.635
  C     -260.112    -373.372      58.660
  O     -261.133    -372.396      58.415
  C     -260.376    -374.637      57.863
  O     -261.682    -375.114      58.067
  C     -259.994    -374.157      56.457
  N     -259.785    -375.265      55.532
  C     -260.922    -375.965      55.139
  O     -262.035    -375.655      55.586
  N     -260.786    -377.023      54.280
  C     -259.599    -377.390      53.893
  N     -259.528    -378.455      53.058
  C     -258.357    -376.709      54.336
  C     -258.528    -375.658      55.140
  O     -257.438    -374.781      61.620
  O     -256.867    -376.811      60.176
  H     -261.868    -375.240      59.025
  H     -256.971    -377.225      61.051
  H     -257.398    -377.069      53.997
  H     -257.678    -375.094      55.517
  H     -260.774    -373.501      56.051
  H     -259.699    -375.439      58.181
  H     -260.004    -373.542      59.738
  H     -258.809    -371.765      57.943
  H     -260.400    -378.899      52.794
  H     -256.672    -373.170      58.059
  H     -258.663    -378.847      52.702
  H     -257.393    -372.745      59.636
  P     -261.434    -371.181      59.411
  C     -263.520    -372.273      60.460
  O     -262.227    -371.717      60.700
  O     -262.074    -370.000      58.758
  O     -259.995    -370.773      60.010
  H     -259.987    -369.808      60.208
  H     -263.948    -372.594      61.387
  H     -263.431    -373.110      59.800
  H     -264.150    -371.532      60.014

 6  7  8  9  10  11  12  13  14  15  16  26  30  31  32  33  35 0
 6-311+G(2d,p)
 ****
 37  38 0
 6-311+G(2d,p)
 ****
 1  2  3  4  5  17  18  19  20  21  22  23  24  25 0
 3-21G
 ****
 27  28  29  34  36  39  40  41  42  43  44  45  46 0
 3-21G
 ****


