%nproc=1
%NoSave
%Mem=1900MB
#P OB98/GEN NMR

erre ene a

0 1
  C      277.774     -51.536     188.132
  O      277.252     -52.517     189.008
  P      275.677     -52.815     189.022
  C      276.026     -53.854     191.360
  O      275.411     -53.995     190.076
  C      275.600     -54.991     192.281
  O      274.227     -54.824     192.696
  C      275.666     -56.370     191.629
  O      277.005     -56.823     191.546
  C      274.773     -57.186     192.555
  O      275.492     -57.594     193.729
  C      273.684     -56.156     192.929
  N      268.650     -56.824     193.309
  C      269.634     -56.850     194.234
  N      270.960     -56.698     194.046
  C      271.234     -56.536     192.740
  C      270.341     -56.524     191.677
  C      268.980     -56.657     191.996
  N      267.957     -56.575     191.074
  N      271.022     -56.360     190.478
  C      272.287     -56.282     190.814
  N      272.464     -56.318     192.178
  O      275.049     -53.003     187.684
  O      275.056     -51.532     189.757
  H      275.635     -56.802     194.281
  H      274.431     -51.079     189.152
  H      269.304     -56.988     195.257
  H      273.113     -56.191     190.120
  H      273.427     -56.200     193.993
  H      274.376     -58.078     192.080
  H      275.215     -56.336     190.631
  H      276.231     -54.954     193.179
  H      275.694     -52.891     191.780
  H      267.019     -56.531     191.434
  H      268.166     -56.151     190.178
  H      277.111     -53.840     191.239
  P      277.773     -56.805     190.144
  C      278.453     -59.246     190.585
  O      278.896     -57.959     190.212
  O      278.263     -55.472     189.692
  O      276.698     -57.420     189.122
  H      276.832     -57.013     188.242
  H      278.304     -59.277     191.671
  H      279.201     -59.976     190.310
  H      277.509     -59.498     190.089
  H      278.835     -51.473     188.259
  H      277.331     -50.588     188.354
  H      277.551     -51.806     187.121

 3  4  5  6  7  8  9  10  11  12  22  25  29  30  31  32 0
 6-311+G(2d,p)
 ****
 33  36  37 0
 6-311+G(2d,p)
 ****
 1  2  13  14  15  16  17  18  19  20  21  23  24  26 0
 3-21G
 ****
 27  28  34  35  38  39  40  41  42  43  44  45  46  47  48 0
 3-21G
 ****


