%nproc=1
%NoSave
%Mem=1900MB
#P OB98/GEN NMR

erre ene a

0 1
  C     -165.581     193.929    -897.060
  O     -166.375     194.526    -898.100
  P     -166.055     196.008    -898.610
  C     -167.995     197.068    -897.240
  O     -166.594     197.052    -897.500
  C     -168.294     198.038    -896.100
  O     -167.801     199.384    -896.390
  C     -169.797     198.232    -895.850
  O     -170.501     197.122    -895.330
  C     -169.846     199.532    -895.070
  O     -169.605     199.327    -893.690
  C     -168.683     200.325    -895.720
  N     -169.134     201.353    -896.640
  C     -169.785     202.442    -896.070
  O     -170.008     202.544    -894.860
  N     -170.214     203.415    -896.940
  C     -170.082     203.386    -898.310
  O     -170.491     204.268    -899.050
  C     -169.400     202.191    -898.860
  C     -168.969     201.255    -898.020
  O     -166.438     196.320    -900.000
  O     -164.458     196.104    -898.410
  H     -170.414     198.969    -893.290
  H     -164.098     196.583    -899.180
  H     -170.677     204.230    -896.550
  H     -169.297     202.137    -899.940
  H     -168.474     200.371    -898.400
  H     -168.069     200.810    -894.940
  H     -170.821     200.014    -895.160
  H     -170.273     198.440    -896.840
  H     -167.799     197.697    -895.190
  H     -168.327     196.061    -896.980
  H     -168.519     197.358    -898.160
  P     -171.597     196.300    -896.140
  C     -173.673     197.545    -895.200
  O     -172.898     197.214    -896.340
  O     -171.829     194.856    -895.770
  O     -170.965     196.301    -897.630
  H     -171.207     195.480    -898.080
  H     -174.502     198.163    -895.500
  H     -173.077     198.106    -894.480
  H     -174.047     196.627    -894.710
  H     -165.943     192.943    -896.856
  H     -165.648     194.524    -896.173
  H     -164.560     193.875    -897.377

 3  4  5  6  7  8  9  10  11  12  13  23  28  29  30  31  32 0
 6-311+G(2d,p)
 ****
 33  34 0
 6-311+G(2d,p)
 ****
 1  2  14  15  16  17  18  19  20  21  22  24  25  26  27 0
 3-21G
 ****
 35  36  37  38  39  40  41  42  43  44  45 0
 3-21G
 ****


