%nproc=1
%NoSave
%Mem=1900MB
#P OB98/GEN NMR

erre ene a

0 1
  C      552.509    -302.167     315.401
  O      552.738    -301.305     316.519
  P      551.481    -300.734     317.340
  C      552.906    -300.599     319.529
  O      552.017    -299.953     318.634
  C      553.843    -299.579     320.182
  O      554.815    -299.100     319.223
  C      553.152    -298.326     320.697
  O      552.474    -298.565     321.925
  C      554.315    -297.364     320.831
  O      555.020    -297.567     322.064
  C      555.195    -297.773     319.627
  N      555.113    -296.825     318.516
  C      556.191    -295.961     318.353
  O      557.152    -295.928     319.121
  N      556.109    -295.103     317.286
  C      555.047    -294.977     316.436
  O      555.025    -294.174     315.511
  C      553.905    -295.858     316.707
  C      553.982    -296.719     317.724
  O      550.872    -302.065     317.989
  O      550.447    -300.022     316.526
  H      555.232    -298.526     322.112
  H      549.909    -301.956     318.129
  H      556.892    -294.489     317.131
  H      553.030    -295.778     316.075
  H      553.147    -297.388     317.943
  H      556.249    -297.845     319.940
  H      554.006    -296.314     320.814
  H      552.451    -297.945     319.942
  H      554.390    -300.087     320.997
  H      553.501    -301.335     318.984
  H      552.317    -301.124     320.298
  P      550.900    -298.878     321.832
  C      550.934    -300.350     323.999
  O      550.448    -299.199     323.338
  O      550.912    -300.292     321.091
  O      550.128    -297.812     321.120
  H      551.688    -300.831     321.338
  H      551.955    -300.583     323.693
  H      550.273    -301.196     323.779
  H      550.924    -300.156     325.080
  H      553.447    -302.453     314.973
  H      551.924    -301.652     314.668
  H      551.985    -303.041     315.726

 3  4  5  6  7  8  9  10  11  12  13  23  28  29  30  31  32 0
 6-311+G(2d,p)
 ****
 33  34 0
 6-311+G(2d,p)
 ****
 1  2  14  15  16  17  18  19  20  21  22  24  25  26 0
 3-21G
 ****
 27  35  36  37  38  39  40  41  42  43  44  45 0
 3-21G
 ****


