%nproc=1
%NoSave
%Mem=1900MB
#P OB98/GEN NMR

erre ene a

0 1
  C      793.094    -746.602    -687.222
  O      792.688    -747.853    -687.755
  H      793.137    -746.692    -686.134
  H      792.372    -745.827    -687.480
  H      794.083    -746.334    -687.597
  P      792.518    -747.927    -689.352
  C      794.204    -748.101    -691.298
  O      793.994    -748.256    -689.897
  C      795.291    -749.058    -691.782
  O      796.483    -748.877    -690.971
  C      794.880    -750.538    -691.681
  O      795.396    -751.245    -692.807
  C      795.592    -751.020    -690.414
  O      795.826    -752.413    -690.431
  C      796.852    -750.151    -690.431
  N      798.987    -752.622    -686.492
  C      798.663    -753.013    -687.756
  N      798.124    -752.285    -688.744
  C      797.931    -751.020    -688.352
  C      798.201    -750.461    -687.112
  C      798.743    -751.349    -686.136
  N      799.048    -750.958    -684.849
  N      797.835    -749.130    -687.084
  C      797.361    -748.883    -688.282
  N      797.400    -749.983    -689.094
  O      791.845    -746.759    -689.986
  O      791.765    -749.333    -689.533
  H      796.420    -752.648    -689.682
  H      792.161    -750.015    -688.966
  H      798.882    -754.058    -687.991
  H      796.991    -747.922    -688.615
  H      797.647    -750.586    -691.042
  H      794.977    -750.785    -689.541
  H      793.799    -750.663    -691.614
  H      795.566    -748.797    -692.812
  H      794.519    -747.067    -691.517
  H      799.450    -751.637    -684.223
  H      798.910    -749.987    -684.573
  H      793.257    -748.294    -691.806
  P      794.354    -752.027    -693.762
  C      792.092    -751.214    -694.703
  O      793.476    -750.925    -694.537
  O      793.576    -753.115    -693.125
  O      795.303    -752.575    -694.918
  H      794.991    -753.469    -695.181
  H      791.621    -750.411    -695.229
  H      791.634    -751.329    -693.743
  H      791.981    -752.120    -695.261

 6  7  8  9  10  11  12  13  14  15  25  28  32  33  34  35 0
 6-311+G(2d,p)
 ****
 36  39  40 0
 6-311+G(2d,p)
 ****
 1  2  3  4  5  16  17  18  19  20  21  22  23  24 0
 3-21G
 ****
 26  27  29  30  31  37  38  41  42  43  44  45  46  47 0
 3-21G
 ****
 48 0
 3-21G
 ****


