%nproc=1
%NoSave
%Mem=1900MB
#P OB98/GEN NMR

erre ene a

0 1
  C       17.322     605.166     362.259
  O       18.002     604.611     363.368
  H       16.326     604.719     362.175
  H       17.205     606.244     362.422
  H       17.883     605.000     361.339
  P       18.542     603.103     363.221
  C       16.212     602.069     363.720
  O       17.274     602.203     362.790
  C       15.160     601.090     363.186
  O       14.509     601.693     362.039
  C       15.731     599.725     362.752
  O       14.803     598.698     363.133
  C       15.762     599.832     361.237
  O       15.702     598.552     360.601
  C       14.551     600.703     360.977
  N       14.766     599.791     355.980
  C       14.403     599.013     357.019
  N       14.322     599.355     358.318
  C       14.589     600.670     358.493
  C       14.969     601.591     357.522
  C       15.073     601.097     356.211
  N       15.498     601.861     355.155
  N       15.220     602.820     358.108
  C       15.014     602.645     359.393
  N       14.637     601.348     359.674
  O       18.796     602.681     364.746
  O       19.764     602.938     362.382
  H       15.545     598.698     359.638
  H       19.695     602.940     365.010
  H       14.165     597.979     356.784
  H       15.157     603.376     360.163
  H       13.597     600.147     360.996
  H       16.685     600.334     360.921
  H       16.724     599.505     363.174
  H       14.392     600.958     363.960
  H       15.740     603.055     363.872
  H       15.651     601.400     354.263
  H       15.838     602.797     355.328
  H       16.609     601.722     364.681
  P       15.283     597.645     364.244
  C       16.378     595.713     362.888
  O       16.572     596.861     363.688
  O       14.129     596.534     364.202
  O       15.436     598.233     365.612
  H       14.002     596.148     365.096
  H       17.328     595.313     362.602
  H       15.825     595.978     362.012
  H       15.834     594.978     363.444

 6  7  8  9  10  11  12  13  14  15  25  28  32  33  34  35 0
 6-311+G(2d,p)
 ****
 36  39  40 0
 6-311+G(2d,p)
 ****
 1  2  3  4  5  16  17  18  19  20  21  22  23  24 0
 3-21G
 ****
 26  27  29  30  31  37  38  41  42  43  44  45  46  47 0
 3-21G
 ****
 48 0
 3-21G
 ****


