%nproc=1
%NoSave
%Mem=1900MB
#P OB98/GEN NMR

erre ene a

0 1
  C      188.214    -355.334     452.744
  O      189.500    -354.815     452.471
  H      187.516    -354.946     452.002
  H      187.890    -355.006     453.737
  H      188.220    -356.424     452.695
  P      190.726    -355.374     453.346
  C      193.206    -355.910     452.777
  O      192.060    -355.121     452.484
  C      194.077    -356.065     451.528
  O      193.489    -357.078     450.672
  C      194.212    -354.776     450.712
  O      195.550    -354.698     450.208
  C      193.246    -354.978     449.556
  O      193.599    -354.217     448.403
  C      193.311    -356.503     449.367
  N      192.105    -357.008     448.711
  C      191.936    -356.668     447.359
  O      192.781    -355.976     446.784
  N      190.804    -357.084     446.711
  C      189.867    -357.694     447.371
  N      188.754    -358.050     446.683
  C      189.971    -358.010     448.814
  C      191.108    -357.646     449.409
  O      190.543    -356.962     453.273
  O      190.793    -354.873     454.750
  H      193.066    -354.541     447.645
  H      190.855    -357.393     454.090
  H      189.158    -358.498     449.327
  H      191.271    -357.832     450.467
  H      194.188    -356.774     448.757
  H      192.241    -354.679     449.865
  H      193.987    -353.875     451.285
  H      195.063    -356.440     451.840
  H      188.706    -357.802     445.701
  H      192.878    -356.900     453.107
  H      187.943    -358.491     447.106
  H      193.776    -355.433     453.586
  P      196.503    -353.593     450.864
  C      199.074    -353.190     450.933
  O      197.973    -353.745     450.228
  O      196.687    -354.107     452.369
  O      195.940    -352.203     450.815
  H      196.188    -353.529     452.979
  H      199.976    -353.372     450.386
  H      199.145    -353.645     451.899
  H      198.931    -352.135     451.045

 6  7  8  9  10  11  12  13  14  15  16  26  30  31  32  33  35 0
 6-311+G(2d,p)
 ****
 37  38 0
 6-311+G(2d,p)
 ****
 1  2  3  4  5  17  18  19  20  21  22  23  24  25 0
 3-21G
 ****
 27  28  29  34  36  39  40  41  42  43  44  45  46 0
 3-21G
 ****


