%nproc=1
%NoSave
%Mem=1900MB
#P OB98/GEN NMR

erre ene a

0 1
  C      317.537    -362.012      83.343
  O      316.612    -361.064      83.837
  P      316.941    -359.509      83.983
  C      315.023    -359.583      85.742
  O      315.708    -358.813      84.763
  C      313.929    -358.780      86.482
  O      314.514    -357.614      87.090
  C      312.892    -358.263      85.464
  O      311.837    -359.100      85.036
  C      312.453    -356.904      86.007
  O      311.223    -356.978      86.734
  C      313.606    -356.506      86.934
  N      313.780    -351.446      86.643
  C      312.978    -352.242      87.440
  N      311.986    -351.608      88.099
  N      313.143    -353.537      87.562
  C      314.125    -354.035      86.765
  C      314.986    -353.340      85.949
  C      314.829    -351.905      85.857
  O      315.457    -351.175      85.099
  N      315.805    -354.182      85.237
  C      315.415    -355.389      85.599
  N      314.369    -355.355      86.490
  O      317.520    -358.818      82.787
  O      318.081    -359.535      85.124
  H      310.834    -356.093      86.744
  H      318.713    -358.813      84.923
  H      313.563    -350.457      86.530
  H      315.821    -356.320      85.216
  H      313.229    -356.274      87.938
  H      312.293    -356.196      85.181
  H      311.738    -350.651      87.920
  H      313.440    -358.034      84.546
  H      311.273    -352.187      88.555
  H      313.495    -359.365      87.293
  H      315.767    -359.952      86.457
  H      314.563    -360.455      85.270
  P      311.310    -359.268      83.530
  C      309.037    -358.315      84.221
  O      309.711    -359.372      83.562
  O      311.755    -360.759      83.129
  O      311.865    -358.282      82.553
  H      311.799    -360.835      82.151
  H      308.012    -358.623      84.447
  H      309.005    -357.432      83.558
  H      309.547    -358.035      85.151
  H      317.086    -362.982      83.340
  H      318.405    -362.024      83.969
  H      317.820    -361.748      82.346

 3  4  5  6  7  8  9  10  11  12  23  26  30  31 0
 6-311+G(2d,p)
 ****
 33  35  36  37  38 0
 6-311+G(2d,p)
 ****
 1  2  13  14  15  16  17  18  19  20  21  22  24  25 0
 3-21G
 ****
 27  28  29  32  34  39  40  41  42  43  44  45  46  47  48  49 0
 3-21G
 ****


