%nproc=1
%NoSave
%Mem=1900MB
#P OB98/GEN NMR

erre ene a

0 1
  C      914.348     313.946     -78.896
  O      914.596     314.660     -77.689
  P      914.940     313.978     -76.287
  C      912.584     313.680     -75.149
  O      913.685     313.096     -75.850
  C      911.560     312.646     -74.695
  O      912.171     311.694     -73.795
  C      910.431     313.330     -73.882
  O      909.360     313.959     -74.564
  C      910.011     312.302     -72.838
  O      908.897     311.526     -73.270
  C      911.260     311.424     -72.681
  N      911.968     309.706     -67.935
  C      911.102     309.251     -68.897
  N      910.273     308.230     -68.546
  N      911.036     309.744     -70.118
  C      911.845     310.826     -70.300
  C      912.734     311.383     -69.413
  C      912.850     310.778     -68.078
  O      913.612     311.130     -67.199
  N      913.381     312.480     -69.961
  C      912.855     312.575     -71.161
  N      911.915     311.602     -71.411
  O      915.521     314.892     -75.249
  O      916.072     312.883     -76.668
  H      908.126     312.154     -73.386
  H      916.669     312.822     -75.880
  H      911.993     309.272     -67.022
  H      913.112     313.341     -71.880
  H      911.003     310.362     -72.765
  H      909.724     312.794     -71.893
  H      910.216     307.872     -67.602
  H      910.896     314.153     -73.315
  H      909.505     308.038     -69.162
  H      911.164     312.069     -75.532
  H      912.133     314.400     -75.844
  H      912.959     314.255     -74.286
  P      909.363     315.428     -75.209
  C      907.878     316.461     -73.378
  O      909.156     316.494     -74.042
  O      907.988     315.494     -76.029
  O      910.544     315.714     -76.107
  H      908.022     316.234     -76.678
  H      907.726     317.401     -72.841
  H      907.865     315.647     -72.676
  H      907.079     316.327     -74.134
  H      914.143     314.639     -79.685
  H      913.506     313.300     -78.761
  H      915.209     313.363     -79.149

 3  4  5  6  7  8  9  10  11  12  23  26  30  31 0
 6-311+G(2d,p)
 ****
 33  35  36  37  38 0
 6-311+G(2d,p)
 ****
 1  2  13  14  15  16  17  18  19  20  21  22  24  25 0
 3-21G
 ****
 27  28  29  32  34  39  40  41  42  43  44  45  46  47  48  49 0
 3-21G
 ****


