%nproc=1
%NoSave
%Mem=1900MB
#P OB98/GEN NMR

erre ene a

0 1
  C       14.158      24.987     -45.884
  O       14.217      25.527     -47.191
  P       14.087      24.563     -48.463
  C       16.589      23.850     -48.433
  O       15.238      23.457     -48.331
  C       17.460      22.707     -48.972
  O       17.245      21.549     -48.130
  C       17.124      22.260     -50.391
  O       18.232      21.522     -50.910
  C       15.958      21.326     -50.154
  O       15.748      20.436     -51.246
  C       16.337      20.651     -48.811
  N       15.148      20.396     -47.978
  C       14.124      19.649     -48.554
  O       14.212      19.144     -49.673
  N       12.962      19.572     -47.836
  C       12.726      20.201     -46.649
  O       11.609      20.377     -46.179
  C       13.912      20.768     -45.985
  C       15.047      20.863     -46.681
  O       14.586      25.493     -49.665
  O       12.718      24.027     -48.707
  H       16.629      20.060     -51.480
  H       13.822      25.896     -50.119
  H       12.175      19.154     -48.317
  H       13.800      21.143     -44.977
  H       15.924      21.324     -46.235
  H       16.846      19.693     -48.974
  H       15.043      21.919     -50.030
  H       16.861      23.077     -51.069
  H       18.517      22.989     -48.896
  H       16.945      24.176     -47.451
  H       16.684      24.714     -49.099
  P       18.681      21.807     -52.422
  C       18.576      19.286     -52.902
  O       18.141      20.573     -53.293
  O       20.118      22.155     -52.623
  O       17.711      23.004     -52.867
  H       18.082      23.455     -53.647
  H       17.808      18.557     -53.172
  H       18.753      19.233     -51.824
  H       19.500      19.042     -53.433
  H       14.262      25.775     -45.168
  H       14.950      24.280     -45.754
  H       13.217      24.498     -45.742

 3  4  5  6  7  8  9  10  11  12  13  23  28  29  30  31  32 0
 6-311+G(2d,p)
 ****
 33  34 0
 6-311+G(2d,p)
 ****
 1  2  14  15  16  17  18  19  20  21  22  24  25  26  27 0
 3-21G
 ****
 35  36  37  38  39  40  41  42  43  44  45 0
 3-21G
 ****


