%nproc=1
%NoSave
%Mem=1900MB
#P OB98/GEN NMR

erre ene a

0 1
  C      176.121    -153.631     -58.765
  O      175.492    -154.325     -59.823
  H      176.969    -153.061     -59.152
  H      175.404    -152.933     -58.324
  H      176.460    -154.324     -57.990
  P      176.255    -155.604     -60.416
  C      177.220    -154.373     -62.487
  O      177.498    -155.037     -61.265
  C      178.490    -153.719     -63.039
  O      179.592    -154.662     -62.900
  C      178.397    -153.318     -64.520
  O      179.081    -152.074     -64.695
  C      179.180    -154.413     -65.226
  O      179.718    -153.990     -66.475
  C      180.241    -154.742     -64.179
  N      181.754    -157.967     -67.808
  C      181.507    -156.641     -67.828
  N      181.158    -155.845     -66.798
  C      181.140    -156.535     -65.645
  C      181.377    -157.887     -65.468
  C      181.682    -158.625     -66.627
  N      181.869    -159.988     -66.629
  N      181.206    -158.237     -64.141
  C      180.849    -157.119     -63.538
  N      180.794    -156.066     -64.406
  O      175.237    -156.119     -61.544
  O      176.581    -156.673     -59.430
  H      180.345    -153.255     -66.316
  H      174.590    -156.730     -61.145
  H      181.587    -156.157     -68.798
  H      180.591    -157.027     -62.491
  H      181.079    -154.032     -64.188
  H      178.525    -155.274     -65.403
  H      177.372    -153.235     -64.894
  H      178.730    -152.852     -62.421
  H      176.471    -153.594     -62.310
  H      181.974    -160.445     -67.522
  H      181.708    -160.505     -65.777
  H      176.821    -155.092     -63.207
  P      178.221    -150.731     -64.529
  C      178.085    -150.129     -67.062
  O      177.385    -150.493     -65.877
  O      179.329    -149.576     -64.577
  O      177.416    -150.676     -63.270
  H      179.063    -148.828     -64.007
  H      177.388    -150.009     -67.865
  H      178.787    -150.897     -67.311
  H      178.605    -149.208     -66.900

 6  7  8  9  10  11  12  13  14  15  25  28  32  33  34  35 0
 6-311+G(2d,p)
 ****
 36  39  40 0
 6-311+G(2d,p)
 ****
 1  2  3  4  5  16  17  18  19  20  21  22  23  24 0
 3-21G
 ****
 26  27  29  30  31  37  38  41  42  43  44  45  46  47 0
 3-21G
 ****
 48 0
 3-21G
 ****


