%nproc=1
%NoSave
%Mem=1900MB
#P OB98/GEN NMR

erre ene a

0 1
  C      362.858     -47.618      46.144
  O      363.659     -48.218      45.145
  H      361.914     -47.303      45.691
  H      363.355     -46.739      46.562
  H      362.640     -48.337      46.939
  P      365.148     -48.664      45.529
  C      364.765     -50.982      46.610
  O      365.181     -50.266      45.457
  C      365.158     -52.462      46.505
  O      365.131     -53.052      47.835
  C      364.212     -53.293      45.618
  O      364.989     -54.352      45.041
  C      363.241     -53.837      46.645
  O      362.475     -54.892      46.119
  C      364.205     -54.161      47.792
  N      363.519     -54.351      49.060
  C      362.942     -55.605      49.270
  O      363.014     -56.475      48.400
  N      362.269     -55.838      50.442
  C      362.128     -54.875      51.300
  N      361.436     -55.162      52.437
  C      362.670     -53.518      51.094
  C      363.353     -53.328      49.965
  O      365.697     -48.083      46.790
  O      366.021     -48.227      44.259
  H      363.052     -55.569      45.698
  H      366.536     -47.428      44.473
  H      362.510     -52.744      51.830
  H      363.792     -52.363      49.724
  H      364.786     -55.066      47.571
  H      362.536     -53.062      46.957
  H      363.736     -52.701      44.832
  H      366.194     -52.525      46.149
  H      361.068     -56.103      52.532
  H      363.677     -50.889      46.680
  H      361.245     -54.492      53.165
  H      365.216     -50.545      47.510
  P      365.049     -54.627      43.461
  C      367.336     -53.740      42.661
  O      366.569     -54.885      43.025
  O      364.347     -53.594      42.640
  O      364.358     -56.061      43.264
  H      363.923     -56.086      42.392
  H      368.326     -54.045      42.392
  H      367.383     -53.064      43.489
  H      366.875     -53.252      41.828

 6  7  8  9  10  11  12  13  14  15  16  26  30  31  32  33  35 0
 6-311+G(2d,p)
 ****
 37  38 0
 6-311+G(2d,p)
 ****
 1  2  3  4  5  17  18  19  20  21  22  23  24  25 0
 3-21G
 ****
 27  28  29  34  36  39  40  41  42  43  44  45  46 0
 3-21G
 ****


