%nproc=1
%NoSave
%Mem=1900MB
#P OB98/GEN NMR

erre ene a

0 1
  C      220.510     533.804     -93.306
  O      221.282     533.753     -94.493
  P      222.254     532.481     -94.707
  C      223.265     533.527     -96.906
  O      223.477     533.028     -95.608
  C      224.338     534.555     -97.277
  O      224.081     535.792     -96.581
  C      225.760     534.149     -96.873
  O      226.302     533.188     -97.759
  C      226.472     535.503     -96.873
  O      226.812     535.888     -98.221
  C      225.352     536.430     -96.323
  N      225.523     536.769     -94.913
  C      226.369     537.830     -94.623
  O      226.959     538.486     -95.495
  N      226.517     538.106     -93.301
  C      226.000     537.420     -92.251
  O      226.222     537.687     -91.064
  C      225.137     536.285     -92.614
  C      224.948     536.018     -93.909
  O      221.379     531.597     -95.703
  O      222.634     531.816     -93.425
  H      220.773     532.148     -96.236
  H      227.427     535.201     -98.560
  H      227.120     538.904     -93.066
  H      224.705     535.697     -91.805
  H      224.319     535.178     -94.205
  H      225.348     537.377     -96.908
  H      227.386     535.499     -96.282
  H      225.757     533.734     -95.850
  H      224.274     534.742     -98.358
  H      222.272     534.007     -96.951
  H      223.261     532.698     -97.619
  P      227.015     531.904     -97.097
  C      228.262     531.657     -99.387
  O      228.334     531.622     -97.972
  O      225.995     530.729     -97.506
  O      227.236     532.049     -95.616
  H      225.695     530.818     -98.426
  H      229.279     531.791     -99.790
  H      227.627     532.479     -99.734
  H      227.872     530.706     -99.751
  H      219.919     534.696     -93.303
  H      221.161     533.804     -92.457
  H      219.867     532.950     -93.262

 3  4  5  6  7  8  9  10  11  12  13  24  28  29  30  31  32 0
 6-311+G(2d,p)
 ****
 33  34 0
 6-311+G(2d,p)
 ****
 1  2  14  15  16  17  18  19  20  21  22  23  25  26  27 0
 3-21G
 ****
 35  36  37  38  39  40  41  42  43  44  45 0
 3-21G
 ****


