%nproc=1
%NoSave
%Mem=1900MB
#P OB98/GEN NMR

erre ene a

0 1
  C      208.332     415.595     737.230
  O      208.552     415.598     735.836
  P      209.750     416.450     735.204
  C      209.941     414.863     733.190
  O      209.762     416.211     733.621
  C      209.627     414.731     731.696
  O      210.500     415.570     730.912
  C      209.827     413.325     731.147
  O      208.814     412.439     731.569
  C      209.862     413.612     729.649
  O      208.532     413.746     729.128
  C      210.602     414.962     729.602
  N      211.990     414.822     729.186
  C      212.248     415.054     727.831
  O      211.326     415.279     727.047
  N      213.553     415.017     727.397
  C      214.492     414.655     728.216
  N      215.774     414.691     727.750
  C      214.239     414.245     729.612
  C      212.977     414.372     730.032
  O      211.076     416.278     735.874
  O      209.252     417.966     735.325
  H      209.959     418.502     735.735
  H      208.089     412.882     729.279
  H      215.045     413.890     730.234
  H      212.700     414.117     731.049
  H      210.092     415.644     728.914
  H      210.346     412.805     729.085
  H      210.809     412.941     731.467
  H      208.592     415.064     731.536
  H      215.911     414.995     726.791
  H      209.273     414.218     733.764
  H      216.574     414.754     728.367
  H      210.976     414.559     733.397
  P      209.286     411.057     732.241
  C      207.391     410.911     734.001
  O      207.983     410.353     732.848
  O      210.097     411.546     733.536
  O      210.133     410.196     731.363
  H      210.859     410.951     733.688
  H      206.360     410.547     734.076
  H      207.379     412.004     733.951
  H      207.947     410.592     734.889
  H      207.492     414.972     737.457
  H      208.136     416.593     737.562
  H      209.201     415.218     737.727

 3  4  5  6  7  8  9  10  11  12  13  24  27  28  29  30  32 0
 6-311+G(2d,p)
 ****
 34  35 0
 6-311+G(2d,p)
 ****
 1  2  14  15  16  17  18  19  20  21  22  23  25  26 0
 3-21G
 ****
 31  33  36  37  38  39  40  41  42  43  44  45  46 0
 3-21G
 ****


