%nproc=1
%NoSave
%Mem=1900MB
#P OB98/GEN NMR

erre ene a

0 1
  C       29.570      12.872     153.057
  O       28.942      11.812     153.749
  H       30.469      13.166     153.604
  H       28.897      13.732     153.002
  H       29.858      12.560     152.049
  P       27.730      11.066     153.009
  C       26.059      10.657     154.960
  O       27.048      10.105     154.102
  C       26.664      10.957     156.332
  O       27.637      12.030     156.187
  C       25.640      11.409     157.382
  O       26.033      10.878     158.656
  C       25.804      12.917     157.395
  O       25.373      13.533     158.604
  C       27.312      13.044     157.159
  N       27.697      14.372     156.681
  C       28.023      15.327     157.641
  O       28.095      15.111     158.851
  N       28.276      16.587     157.158
  C       28.212      16.978     155.852
  O       28.429      18.126     155.485
  C       27.853      15.929     154.889
  C       27.613      14.694     155.341
  O       28.482      10.041     152.035
  O       26.778      11.954     152.280
  H       28.659      10.458     151.171
  H       25.511      14.498     158.507
  H       28.513      17.290     157.840
  H       27.782      16.204     153.841
  H       27.324      13.900     154.656
  H       27.866      12.809     158.075
  H       25.240      13.362     156.570
  H       24.609      11.109     157.161
  H       27.212      10.070     156.677
  H       25.240       9.940     155.079
  H       25.663      11.576     154.508
  P       24.864      10.414     159.656
  C       25.509      11.856     161.750
  O       25.473      10.577     161.132
  O       24.851       8.838     159.399
  O       23.569      11.114     159.403
  H       25.734       8.470     159.223
  H       25.946      11.770     162.723
  H       24.513      12.238     161.838
  H       26.095      12.524     161.154

 6  7  8  9  10  11  12  13  14  15  16  27  31  32  33  34  35 0
 6-311+G(2d,p)
 ****
 36  37 0
 6-311+G(2d,p)
 ****
 1  2  3  4  5  17  18  19  20  21  22  23  24  25 0
 3-21G
 ****
 26  28  29  30  38  39  40  41  42  43  44  45 0
 3-21G
 ****


