%nproc=1
%NoSave
%Mem=1900MB
#P OB98/GEN NMR

erre ene a

0 1
  C     -287.095     326.487    -187.249
  O     -285.895     327.199    -186.973
  P     -284.619     326.882    -187.894
  C     -283.862     325.138    -186.129
  O     -284.157     325.400    -187.496
  C     -282.590     324.307    -186.004
  O     -282.791     323.018    -186.608
  C     -281.374     324.900    -186.700
  O     -280.753     325.909    -185.916
  C     -280.480     323.674    -186.824
  O     -279.785     323.455    -185.584
  C     -281.500     322.550    -187.071
  N     -280.704     318.886    -190.480
  C     -280.465     318.898    -189.123
  N     -279.969     317.759    -188.587
  N     -280.691     319.930    -188.353
  C     -281.226     320.982    -189.015
  C     -281.505     321.092    -190.358
  C     -281.203     319.962    -191.207
  O     -281.331     319.916    -192.431
  N     -282.056     322.315    -190.655
  C     -282.145     322.926    -189.491
  N     -281.624     322.170    -188.469
  O     -283.478     327.808    -187.258
  O     -284.807     327.152    -189.348
  H     -279.067     322.822    -185.767
  H     -282.799     328.010    -187.933
  H     -280.528     318.058    -191.022
  H     -282.570     323.907    -189.346
  H     -281.255     321.654    -186.492
  H     -279.718     323.779    -187.605
  H     -279.897     316.895    -189.102
  H     -281.632     325.269    -187.699
  H     -279.822     317.736    -187.587
  H     -282.387     324.153    -184.935
  H     -284.695     324.587    -185.678
  H     -283.751     326.094    -185.603
  P     -280.293     327.240    -186.692
  C     -277.837     326.418    -186.934
  O     -279.039     326.794    -187.584
  O     -279.645     328.135    -185.535
  O     -281.396     327.947    -187.406
  H     -279.702     329.081    -185.768
  H     -278.041     325.882    -186.001
  H     -277.246     327.310    -186.722
  H     -277.270     325.762    -187.597
  H     -287.858     326.795    -186.565
  H     -286.920     325.437    -187.139
  H     -287.410     326.693    -188.251

 3  4  5  6  7  8  9  10  11  12  23  26  30  31  33  0
 6-311+G(2d,p)
 ****
 35  36  37  38 0
 6-311+G(2d,p)
 ****
 1  2  13  14  15  16  17  18  19  20  21  22  24  25  27  28  29 0
 3-21G
 ****
 32  34  39  40  41  42  43  44  45  46  47  48  49 0
 3-21G
 ****


