%nproc=1
%NoSave
%Mem=1900MB
#P OB98/GEN NMR

erre ene a

0 1
  C      218.829      17.277     -57.226
  O      220.098      16.984     -56.677
  H      218.820      16.955     -58.272
  H      218.642      18.353     -57.191
  H      218.039      16.745     -56.689
  P      220.327      17.203     -55.105
  C      220.466      19.218     -53.501
  O      220.210      18.778     -54.830
  C      220.504      20.743     -53.454
  O      221.668      21.231     -54.158
  C      219.313      21.409     -54.133
  O      218.146      21.327     -53.334
  C      219.854      22.812     -54.347
  O      219.732      23.600     -53.157
  C      221.338      22.541     -54.673
  N      221.610      22.627     -56.108
  C      221.395      23.868     -56.700
  O      221.010      24.859     -56.082
  N      221.580      23.920     -58.058
  C      221.812      22.848     -58.871
  O      221.723      22.898     -60.095
  C      222.091      21.575     -58.186
  C      221.968      21.523     -56.857
  O      221.537      16.544     -54.530
  O      218.983      16.628     -54.446
  H      219.161      15.739     -54.080
  H      220.139      24.467     -53.366
  H      221.383      24.808     -58.500
  H      222.353      20.717     -58.793
  H      222.135      20.586     -56.330
  H      221.984      23.258     -54.152
  H      219.318      23.329     -55.146
  H      219.134      20.944     -55.110
  H      220.583      21.056     -52.405
  H      221.438      18.818     -53.179
  H      219.685      18.828     -52.839
  P      216.698      21.306     -54.017
  C      215.235      22.947     -55.350
  O      216.315      22.807     -54.434
  O      215.642      20.581     -53.249
  O      216.949      20.602     -55.435
  H      216.292      19.888     -55.555
  H      215.072      23.985     -55.553
  H      214.349      22.523     -54.925
  H      215.472      22.438     -56.261

 6  7  8  9  10  11  12  13  14  15  16  27  31  32  33  34  35 0
 6-311+G(2d,p)
 ****
 36  37 0
 6-311+G(2d,p)
 ****
 1  2  3  4  5  17  18  19  20  21  22  23  24  25 0
 3-21G
 ****
 26  28  29  30  38  39  40  41  42  43  44  45 0
 3-21G
 ****


