%nproc=1
%NoSave
%Mem=1900MB
#P OB98/GEN NMR

erre ene a

0 1
  C     -263.085     -15.110      60.923
  O     -263.545     -13.796      60.681
  H     -263.657     -15.800      60.297
  H     -263.240     -15.380      61.970
  H     -262.027     -15.201      60.666
  P     -262.864     -12.586      61.484
  C     -264.779     -13.023      63.174
  O     -263.395     -12.769      62.992
  C     -265.275     -12.352      64.452
  O     -264.689     -12.958      65.624
  C     -264.930     -10.872      64.575
  O     -265.699     -10.032      63.732
  C     -265.238     -10.653      66.046
  O     -266.661     -10.583      66.237
  C     -264.649     -11.941      66.664
  N     -263.282     -11.759      67.152
  C     -263.083     -11.908      68.529
  O     -264.024     -12.170      69.276
  N     -261.819     -11.723      69.039
  C     -260.847     -11.395      68.248
  N     -259.619     -11.218      68.806
  C     -261.016     -11.208      66.793
  C     -262.243     -11.405      66.318
  O     -263.049     -11.223      60.899
  O     -261.329     -13.015      61.631
  H     -266.997      -9.903      65.625
  H     -260.859     -12.293      62.114
  H     -260.180     -10.905      66.181
  H     -262.449     -11.280      65.261
  H     -265.274     -12.298      67.493
  H     -264.813      -9.729      66.443
  H     -263.856     -10.707      64.418
  H     -266.360     -12.518      64.511
  H     -259.532     -11.351      69.805
  H     -264.926     -14.107      63.218
  H     -258.821     -10.887      68.278
  H     -265.349     -12.621      62.331
  P     -264.930      -8.809      63.025
  C     -265.408      -7.419      65.186
  O     -264.466      -7.829      64.205
  O     -266.108      -8.014      62.295
  O     -263.832      -9.204      62.088
  H     -266.151      -8.252      61.349
  H     -264.930      -6.772      65.891
  H     -265.791      -8.279      65.694
  H     -266.213      -6.897      64.712

 6  7  8  9  10  11  12  13  14  15  16  26  30  31  32  33  35 0
 6-311+G(2d,p)
 ****
 37  38 0
 6-311+G(2d,p)
 ****
 1  2  3  4  5  17  18  19  20  21  22  23  24  25 0
 3-21G
 ****
 27  28  29  34  36  39  40  41  42  43  44  45  46 0
 3-21G
 ****


