%nproc=1
%NoSave
%Mem=1900MB
#P OB98/GEN NMR

erre ene a

0 1
  C      -35.256     154.381      13.545
  O      -36.261     154.516      14.530
  H      -34.866     155.364      13.269
  H      -34.440     153.780      13.951
  H      -35.659     153.880      12.661
  P      -37.540     155.403      14.144
  C      -38.116     157.931      14.113
  O      -37.124     156.942      14.356
  C      -37.522     159.323      14.317
  O      -37.457     159.588      15.743
  C      -36.112     159.512      13.732
  O      -36.107     160.589      12.789
  C      -35.257     159.911      14.924
  O      -34.311     160.935      14.620
  C      -36.280     160.377      15.953
  N      -33.204     162.372      19.492
  C      -33.800     162.925      18.413
  N      -34.692     162.368      17.570
  C      -34.981     161.110      17.948
  C      -34.473     160.420      19.035
  C      -33.527     161.099      19.821
  N      -32.878     160.518      20.888
  N      -35.000     159.143      19.096
  C      -35.777     159.049      18.036
  N      -35.782     160.206      17.304
  O      -38.559     155.121      15.348
  O      -38.151     155.091      12.819
  H      -34.824     161.713      14.331
  H      -39.441     154.914      14.988
  H      -33.515     163.950      18.192
  H      -36.318     158.163      17.729
  H      -36.551     161.432      15.818
  H      -34.708     159.029      15.278
  H      -35.727     158.602      13.257
  H      -38.214     160.058      13.885
  H      -38.949     157.794      14.811
  H      -32.130     161.038      21.322
  H      -33.032     159.537      21.071
  H      -38.493     157.814      13.092
  P      -35.841     160.201      11.250
  C      -33.751     159.584       9.826
  O      -34.294     159.792      11.122
  O      -35.911     161.616      10.508
  O      -36.821     159.225      10.693
  H      -36.183     161.493       9.577
  H      -32.718     159.320       9.910
  H      -33.844     160.482       9.252
  H      -34.283     158.793       9.339

 6  7  8  9  10  11  12  13  14  15  25  28  32  33  34  35 0
 6-311+G(2d,p)
 ****
 36  39  40 0
 6-311+G(2d,p)
 ****
 1  2  3  4  5  16  17  18  19  20  21  22  23  24 0
 3-21G
 ****
 26  27  29  30  31  37  38  41  42  43  44  45  46  47  48 0
 3-21G
 ****


