%nproc=1
%NoSave
%Mem=1900MB
#P OB98/GEN NMR

erre ene a

0 1
  C      119.659     197.231     571.385
  O      120.871     197.848     570.986
  P      120.877     199.297     570.290
  C      121.060     198.136     567.987
  O      120.327     199.039     568.807
  C      120.875     198.504     566.513
  O      119.546     198.155     566.087
  C      121.033     199.989     566.213
  O      122.400     200.373     566.210
  C      120.315     200.084     564.867
  O      121.176     199.637     563.811
  C      119.155     199.090     565.059
  N      117.889     199.745     565.390
  C      117.390     200.656     564.452
  O      117.999     200.882     563.401
  N      116.194     201.279     564.707
  C      115.560     201.030     565.818
  N      114.345     201.622     565.986
  C      116.077     200.118     566.857
  C      117.227     199.511     566.577
  O      122.177     200.020     570.359
  O      119.666     200.079     570.978
  H      121.324     198.680     563.960
  H      119.923     200.558     571.805
  H      115.518     199.961     567.766
  H      117.665     198.815     567.278
  H      119.012     198.491     564.145
  H      119.979     201.099     564.622
  H      120.492     200.588     566.963
  H      121.591     197.920     565.925
  H      113.951     202.099     565.182
  H      120.675     197.123     568.151
  H      113.674     201.270     566.656
  H      122.118     198.164     568.271
  P      122.723     201.936     566.107
  C      123.022     202.208     563.542
  O      122.182     202.411     564.672
  O      124.318     201.968     565.956
  O      122.249     202.744     567.267
  H      124.743     202.197     566.812
  H      122.423     202.354     562.636
  H      123.426     201.193     563.537
  H      123.834     202.938     563.547
  H      119.871     196.279     571.824
  H      119.029     197.097     570.531
  H      119.162     197.851     572.101

 3  4  5  6  7  8  9  10  11  12  13  23  27  28  29  30  32 0
 6-311+G(2d,p)
 ****
 34  35 0
 6-311+G(2d,p)
 ****
 1  2  14  15  16  17  18  19  20  21  22  24  25  26 0
 3-21G
 ****
 31  33  36  37  38  39  40  41  42  43  44  45  46 0
 3-21G
 ****


