%nproc=1
%NoSave
%Mem=1900MB
#P OB98/GEN NMR

erre ene a

0 1
  C      299.536    -896.210     126.491
  O      298.474    -896.050     127.427
  P      297.094    -895.430     126.914
  C      295.831    -896.370     129.016
  O      296.168    -895.260     128.217
  C      294.744    -895.970     130.030
  O      293.642    -895.330     129.357
  C      294.140    -897.130     130.808
  O      295.023    -897.590     131.830
  C      292.859    -896.510     131.295
  O      293.087    -895.720     132.484
  C      292.441    -895.620     130.127
  N      291.403    -896.220     129.255
  C      290.093    -896.050     129.679
  O      289.787    -895.450     130.722
  N      289.146    -896.650     128.908
  C      289.364    -897.380     127.788
  O      288.470    -897.920     127.122
  C      290.771    -897.550     127.406
  C      291.712    -896.950     128.139
  O      296.469    -896.690     126.125
  O      297.273    -894.210     126.068
  H      296.779    -897.540     126.496
  H      292.265    -895.230     132.680
  H      288.164    -896.520     129.196
  H      290.993    -898.130     126.502
  H      292.767    -897.050     127.887
  H      292.092    -894.630     130.487
  H      292.082    -897.260     131.576
  H      293.922    -897.970     130.128
  H      295.211    -895.240     130.731
  H      296.713    -896.720     129.552
  H      295.452    -897.180     128.362
  P      294.980    -899.190     132.136
  C      297.073    -899.120     133.731
  O      295.672    -899.380     133.575
  O      296.054    -899.750     131.090
  O      293.611    -899.810     131.992
  H      296.853    -899.170     131.025
  H      297.258    -898.970     134.794
  H      297.366    -898.240     133.164
  H      297.646    -900.000     133.367
  H      300.385    -896.634     126.984
  H      299.799    -895.256     126.084
  H      299.221    -896.860     125.702

 3  4  5  6  7  8  9  10  11  12  13  24  28  29  30  31  32 0
 6-311+G(2d,p)
 ****
 33  34 0
 6-311+G(2d,p)
 ****
 1  2  14  15  16  17  18  19  20  21  22  23  25  26  27 0
 3-21G
 ****
 35  36  37  38  39  40  41  42  43  44  45 0
 3-21G
 ****


