%nproc=1
%NoSave
%Mem=1900MB
#P OB98/GEN NMR

erre ene a

0 1
  C     -125.025      91.733    -235.416
  O     -125.402      90.984    -234.257
  P     -125.818      89.451    -234.471
  C     -124.034      88.646    -232.753
  O     -124.578      88.524    -234.063
  C     -122.674      87.949    -232.680
  O     -121.880      88.234    -233.846
  C     -121.830      88.407    -231.503
  O     -122.271      87.795    -230.307
  C     -120.431      87.983    -231.932
  O     -120.123      86.648    -231.497
  C     -120.502      88.054    -233.474
  N     -119.664      89.107    -234.027
  C     -118.415      88.704    -234.507
  O     -118.070      87.521    -234.427
  N     -117.580      89.652    -235.039
  C     -117.950      90.895    -235.066
  N     -117.077      91.790    -235.601
  C     -119.250      91.364    -234.545
  C     -120.049      90.426    -234.041
  O     -125.880      89.307    -236.064
  O     -127.119      89.083    -233.834
  H     -119.200      86.486    -231.783
  H     -126.568      88.665    -236.319
  H     -119.510      92.411    -234.581
  H     -121.023      90.681    -233.636
  H     -120.181      87.103    -233.914
  H     -119.667      88.638    -231.504
  H     -121.875      89.500    -231.412
  H     -122.841      86.864    -232.624
  H     -116.195      91.434    -235.946
  H     -124.716      88.210    -232.022
  H     -117.259      92.780    -235.664
  H     -123.946      89.710    -232.506
  P     -123.520      88.450    -229.550
  C     -124.866      86.286    -229.862
  O     -124.805      87.676    -230.118
  O     -123.646      89.872    -230.278
  O     -123.427      88.588    -228.068
  H     -124.321      90.416    -229.838
  H     -125.868      85.928    -230.110
  H     -124.670      86.079    -228.807
  H     -124.139      85.762    -230.489
  H     -124.774      92.733    -235.129
  H     -125.841      91.755    -236.108
  H     -124.178      91.272    -235.879

 3  4  5  6  7  8  9  10  11  12  13  21  23  27  28  29  30  32 0
 6-311+G(2d,p)
 ****
 34  35 0
 6-311+G(2d,p)
 ****
 1  2  14  15  16  17  18  19  20  22  24  25  26 0
 3-21G
 ****
 31  33  36  37  38  39  40  41  42  43  44  45  46 0
 3-21G
 ****


