%nproc=1
%NoSave
%Mem=1900MB
#P OB98/GEN NMR

erre ene a

0 1
  C      980.185    1573.528    -631.734
  O      979.879    1574.902    -631.624
  H      980.541    1573.171    -630.763
  H      980.974    1573.384    -632.475
  H      979.302    1572.957    -632.023
  P      979.313    1575.633    -632.943
  C      976.900    1575.260    -632.020
  O      977.810    1575.088    -633.110
  C      975.523    1574.703    -632.405
  O      975.016    1575.405    -633.556
  C      975.551    1573.175    -632.721
  O      974.409    1572.559    -632.112
  C      975.431    1573.150    -634.235
  O      974.855    1571.931    -634.699
  C      974.623    1574.424    -634.535
  N      974.878    1574.923    -635.889
  C      974.499    1574.054    -636.953
  O      974.001    1572.950    -636.715
  N      974.752    1574.457    -638.247
  C      975.354    1575.574    -638.464
  N      975.593    1575.899    -639.765
  C      975.794    1576.482    -637.384
  C      975.524    1576.107    -636.140
  O      980.110    1574.932    -634.124
  O      979.428    1577.131    -632.938
  H      974.895    1571.949    -635.675
  H      980.023    1575.417    -634.972
  H      976.328    1577.415    -637.619
  H      975.821    1576.681    -635.279
  H      973.548    1574.232    -634.430
  H      976.448    1573.236    -634.676
  H      976.439    1572.703    -632.389
  H      974.823    1574.920    -631.575
  H      975.261    1575.248    -640.478
  H      976.806    1576.336    -631.800
  H      976.087    1576.740    -640.055
  H      977.285    1574.743    -631.140
  P      974.746    1571.528    -630.931
  C      972.655    1571.742    -629.374
  O      974.024    1572.084    -629.592
  O      976.290    1571.780    -630.651
  O      974.432    1570.130    -631.264
  H      976.819    1571.101    -631.088
  H      972.320    1572.178    -628.456
  H      972.558    1570.678    -629.319
  H      972.061    1572.113    -630.183

 6  7  8  9  10  11  12  13  14  15  16  26  30  31  32  33  35 0
 6-311+G(2d,p)
 ****
 37  38 0
 6-311+G(2d,p)
 ****
 1  2  3  4  5  17  18  19  20  21  22  23  24  25 0
 3-21G
 ****
 27  28  29  34  36  39  40  41  42  43  44  45  46 0
 3-21G
 ****


