%nproc=1
%NoSave
%Mem=1900MB
#P OB98/GEN NMR

erre ene a

0 1
  C       16.357    -899.300     440.095
  O       15.692    -898.200     440.670
  H       16.679    -900.000     440.873
  H       15.671    -899.810     439.417
  H       17.228    -898.960     439.525
  P       16.522    -897.320     441.734
  C       15.617    -895.250     440.461
  O       15.887    -895.840     441.732
  C       14.495    -894.230     440.605
  O       13.238    -894.930     440.826
  C       14.684    -893.200     441.744
  O       14.674    -891.870     441.239
  C       13.454    -893.380     442.632
  O       12.924    -892.160     443.119
  C       12.468    -894.100     441.712
  N        8.047    -896.650     441.423
  C        8.939    -896.280     440.464
  N       10.149    -895.700     440.617
  C       10.430    -895.530     441.926
  C        9.641    -895.870     443.009
  C        8.381    -896.430     442.725
  N        7.469    -896.770     443.696
  N       10.278    -895.530     444.199
  C       11.393    -894.950     443.834
  N       11.527    -894.900     442.470
  O       17.949    -897.140     441.014
  O       16.667    -897.940     443.085
  H       12.639    -891.640     442.337
  H       18.657    -897.330     441.647
  H        8.625    -896.470     439.455
  H       12.125    -894.510     444.496
  H       11.898    -893.400     441.086
  H       13.726    -894.020     443.485
  H       15.609    -893.390     442.310
  H       14.394    -893.690     439.644
  H       15.302    -896.030     439.753
  H        6.559    -897.050     443.388
  H        7.673    -896.520     444.660
  H       16.529    -894.780     440.089
  P       15.871    -890.890     441.728
  C       17.161    -890.680     439.492
  O       16.352    -890.040     440.466
  O       17.081    -891.920     441.983
  O       15.526    -890.110     442.960
  H       17.689    -891.550     442.662
  H       17.400    -889.985     438.714
  H       16.630    -891.511     439.077
  H       18.064    -891.027     439.950

 6  7  8  9  10  11  12  13  14  15  25  28  32  33  34  35 0
 6-311+G(2d,p)
 ****
 36  39  40 0
 6-311+G(2d,p)
 ****
 1  2  3  4  5  16  17  18  19  20  21  22  23  24 0
 3-21G
 ****
 26  27  29  30  31  37  38  41  42  43  44  45  46  47  48 0
 3-21G
 ****


