%nproc=1
%NoSave
%Mem=1900MB
#P OB98/GEN NMR

erre ene a

0 1
  C      230.903     276.110     163.454
  O      232.058     275.925     162.665
  H      231.110     276.873     164.208
  H      230.645     275.178     163.963
  H      230.063     276.442     162.837
  P      231.934     274.960     161.389
  C      233.272     276.742     160.052
  O      233.123     275.369     160.387
  C      234.708     277.029     159.616
  O      235.572     276.961     160.781
  C      235.244     276.044     158.574
  O      236.057     276.763     157.642
  C      236.116     275.103     159.383
  O      237.132     274.481     158.598
  C      236.636     276.033     160.487
  N      237.042     275.282     161.673
  C      238.273     274.628     161.611
  O      238.960     274.693     160.587
  N      238.679     273.871     162.679
  C      237.883     273.708     163.688
  N      238.330     272.922     164.705
  C      236.543     274.323     163.770
  C      236.192     275.097     162.740
  O      230.626     275.498     160.642
  O      231.856     273.502     161.694
  H      237.567     273.791     159.145
  H      230.157     274.776     160.184
  H      235.906     274.138     164.619
  H      235.228     275.583     162.709
  H      237.494     276.615     160.129
  H      235.493     274.309     159.818
  H      234.453     275.514     158.035
  H      234.759     278.059     159.243
  H      239.247     272.502     164.605
  H      233.039     277.350     160.934
  H      237.778     272.688     165.518
  H      232.570     276.998     159.252
  P      235.290     277.696     156.585
  C      236.697     279.652     155.611
  O      236.370     278.270     155.550
  O      234.876     278.973     157.455
  O      234.099     277.042     155.964
  H      233.915     278.975     157.611
  H      237.427     279.879     154.862
  H      237.094     279.882     156.577
  H      235.816     280.235     155.439

 6  7  8  9  10  11  12  13  14  15  16  26  30  31  32  33  35 0
 6-311+G(2d,p)
 ****
 37  38 0
 6-311+G(2d,p)
 ****
 1  2  3  4  5  17  18  19  20  21  22  23  24  25 0
 3-21G
 ****
 27  28  29  34  36  39  40  41  42  43  44  45  46 0
 3-21G
 ****


