%nproc=1
%NoSave
%Mem=1900MB
#P OB98/GEN NMR

erre ene a

0 1
  C     -246.393     189.773     -72.978
  O     -246.271     191.022     -73.661
  P     -247.245     192.229     -73.269
  C     -245.813     194.302     -72.719
  O     -246.565     193.615     -73.710
  C     -244.344     193.848     -72.730
  O     -243.873     193.746     -74.101
  C     -243.417     194.818     -71.981
  O     -242.584     194.165     -71.022
  C     -242.696     195.552     -73.100
  O     -241.451     196.095     -72.692
  C     -242.655     194.505     -74.221
  N     -242.518     195.126     -75.544
  C     -241.419     194.742     -76.299
  O     -240.543     193.987     -75.878
  N     -241.317     195.309     -77.543
  C     -242.151     196.258     -78.058
  O     -241.994     196.768     -79.158
  C     -243.263     196.670     -77.186
  C     -243.393     196.093     -75.988
  O     -247.785     192.204     -71.878
  O     -248.439     192.082     -74.337
  H     -241.588     196.599     -71.861
  H     -249.278     192.289     -73.878
  H     -240.533     195.027     -78.109
  H     -243.932     197.437     -77.552
  H     -244.194     196.386     -75.324
  H     -241.811     193.823     -74.093
  H     -243.323     196.388     -73.423
  H     -243.988     195.539     -71.387
  H     -244.308     192.855     -72.274
  H     -246.239     194.101     -71.737
  H     -245.906     195.382     -72.880
  P     -243.081     193.649     -69.592
  C     -241.400     191.933     -68.607
  O     -241.792     193.289     -68.715
  O     -244.137     192.596     -69.617
  O     -243.641     194.979     -68.903
  H     -244.457     194.766     -68.409
  H     -240.775     191.822     -67.717
  H     -240.819     191.652     -69.485
  H     -242.271     191.278     -68.515
  H     -245.670     189.084     -73.363
  H     -247.376     189.379     -73.128
  H     -246.224     189.921     -71.932

 3  4  5  6  7  8  9  10  11  12  13  23  28  29  30  31  32 0
 6-311+G(2d,p)
 ****
 33  34 0
 6-311+G(2d,p)
 ****
 1  2  14  15  16  17  18  19  20  21  22  24  25  26  27 0
 3-21G
 ****
 35  36  37  38  39  40  41  42  43  44  45 0
 3-21G
 ****


