%nproc=1
%NoSave
%Mem=1900MB
#P OB98/GEN NMR

erre ene a

0 1
  C     -715.276    1045.478    -306.557
  O     -713.964    1045.863    -306.229
  H     -715.658    1044.824    -305.768
  H     -715.277    1044.929    -307.501
  H     -715.942    1046.346    -306.642
  P     -713.326    1047.141    -306.948
  C     -712.157    1048.641    -305.205
  O     -713.364    1048.359    -305.897
  C     -712.167    1050.046    -304.592
  O     -712.085    1051.043    -305.642
  C     -713.452    1050.343    -303.828
  O     -713.475    1049.879    -302.489
  C     -713.507    1051.860    -303.882
  O     -712.731    1052.441    -302.813
  C     -712.872    1052.176    -305.234
  N     -714.658    1055.617    -308.569
  C     -713.641    1055.748    -307.643
  N     -713.071    1056.966    -307.559
  N     -713.245    1054.777    -306.866
  C     -713.966    1053.635    -306.995
  C     -715.007    1053.389    -307.864
  C     -715.408    1054.461    -308.763
  O     -716.310    1054.390    -309.593
  N     -715.499    1052.121    -307.713
  C     -714.812    1051.629    -306.709
  N     -713.854    1052.507    -306.256
  O     -714.450    1047.573    -308.009
  O     -712.007    1046.918    -307.621
  H     -713.077    1052.101    -301.964
  H     -714.039    1048.045    -308.757
  H     -714.905    1056.387    -309.167
  H     -714.950    1050.639    -306.276
  H     -712.184    1053.037    -305.165
  H     -714.530    1052.242    -303.768
  H     -713.424    1057.775    -308.049
  H     -714.317    1049.950    -304.368
  H     -712.518    1057.176    -306.721
  H     -711.279    1050.172    -303.958
  H     -711.343    1048.554    -305.930
  H     -711.981    1047.890    -304.429
  P     -714.869    1049.794    -301.692
  C     -714.965    1047.199    -301.509
  O     -715.529    1048.374    -302.052
  O     -715.782    1050.848    -302.482
  O     -714.779    1050.111    -300.243
  H     -715.775    1051.707    -302.023
  H     -715.520    1046.348    -301.846
  H     -715.000    1047.247    -300.441
  H     -713.948    1047.111    -301.829

 6  7  8  9  10  11  12  13  14  15  26  29  33  34 0
 6-311+G(2d,p)
 ****
 36  38  39  40  41 0
 6-311+G(2d,p)
 ****
 1  2  3  4  5  16  17  18  19  20  21  22  23  24  25 0
 3-21G
 ****
 27  28  30  31  32  35  37  42  43  44  45  46  47 0
 3-21G
 ****
 48  49 0
 3-21G
 ****


