%nproc=1
%NoSave
%Mem=1900MB
#P OB98/GEN NMR

erre ene a

0 1
  C     -366.277    -784.986    -899.070
  O     -365.876    -783.993    -898.150
  H     -365.709    -784.858    -900.000
  H     -367.341    -784.886    -899.300
  H     -366.082    -785.990    -898.670
  P     -366.621    -783.990    -896.730
  C     -365.991    -783.008    -894.400
  O     -365.527    -783.528    -895.650
  C     -364.880    -782.214    -893.710
  O     -363.816    -783.106    -893.260
  C     -364.210    -781.152    -894.590
  O     -364.984    -779.975    -894.640
  C     -362.874    -780.981    -893.900
  O     -363.000    -780.104    -892.770
  C     -362.556    -782.416    -893.460
  N     -358.216    -782.392    -896.060
  C     -358.689    -781.507    -895.120
  N     -357.941    -780.393    -894.880
  N     -359.829    -781.644    -894.490
  C     -360.504    -782.773    -894.840
  C     -360.125    -783.738    -895.740
  C     -358.842    -783.579    -896.410
  O     -358.327    -784.365    -897.200
  N     -361.054    -784.747    -895.840
  C     -362.024    -784.356    -895.020
  N     -361.736    -783.159    -894.400
  O     -366.825    -785.554    -896.400
  O     -367.919    -783.262    -896.690
  H     -363.225    -779.201    -893.080
  H     -367.622    -785.678    -895.870
  H     -357.333    -782.231    -896.500
  H     -362.929    -784.907    -894.820
  H     -362.016    -782.440    -892.500
  H     -362.141    -780.535    -894.550
  H     -357.258    -780.074    -895.550
  H     -364.045    -781.548    -895.620
  H     -358.303    -779.718    -894.230
  H     -365.313    -781.743    -892.830
  H     -366.280    -783.856    -893.760
  H     -366.862    -782.372    -894.570
  P     -364.722    -778.937    -895.850
  C     -366.011    -776.930    -896.880
  O     -366.029    -778.010    -895.940
  O     -364.841    -779.871    -897.160
  O     -363.407    -778.226    -895.800
  H     -364.431    -779.424    -897.910
  H     -366.940    -776.401    -896.833
  H     -365.872    -777.319    -897.867
  H     -365.208    -776.264    -896.643

 6  7  8  9  10  11  12  13  14  15  26  29  33  34 0
 6-311+G(2d,p)
 ****
 36  38  39  40  41 0
 6-311+G(2d,p)
 ****
 1  2  3  4  5  16  17  18  19  20  21  22  23  24  25 0
 3-21G
 ****
 27  28  30  31  32  35  37  42  43  44  45  46  47 0
 3-21G
 ****
 48  49 0
 3-21G
 ****


