%nproc=1
%NoSave
%Mem=1900MB
#P OB98/GEN NMR

erre ene a

0 1
  C      -42.910    -122.603      57.846
  O      -42.895    -123.414      56.666
  P      -42.381    -122.750      55.298
  C      -43.366    -121.147      53.499
  O      -43.617    -121.983      54.619
  C      -44.633    -121.005      52.646
  O      -44.934    -122.230      51.933
  C      -45.883    -120.676      53.457
  O      -45.982    -119.284      53.728
  C      -46.978    -121.090      52.484
  O      -47.178    -120.057      51.500
  C      -46.377    -122.347      51.832
  N      -49.980    -125.905      51.920
  C      -49.853    -124.782      51.120
  N      -50.827    -124.586      50.200
  N      -48.863    -123.932      51.210
  C      -47.957    -124.265      52.161
  C      -47.971    -125.347      53.016
  C      -49.080    -126.273      52.913
  O      -49.255    -127.276      53.605
  N      -46.878    -125.344      53.845
  C      -46.193    -124.276      53.484
  N      -46.814    -123.577      52.474
  O      -42.182    -124.018      54.338
  O      -41.121    -121.958      55.439
  H      -47.366    -119.234      51.993
  H      -41.496    -123.827      53.673
  H      -50.766    -126.522      51.811
  H      -45.247    -123.971      53.917
  H      -46.632    -122.429      50.769
  H      -47.941    -121.242      52.983
  H      -51.591    -125.225      50.043
  H      -45.934    -121.286      54.372
  H      -50.733    -123.785      49.583
  H      -44.462    -120.208      51.908
  H      -42.555    -121.558      52.890
  H      -43.012    -120.174      53.853
  P      -46.062    -118.830      55.266
  C      -47.726    -119.275      57.213
  O      -47.341    -119.569      55.879
  O      -46.515    -117.294      55.158
  O      -44.786    -118.976      56.031
  H      -46.143    -116.784      55.903
  H      -48.697    -119.740      57.408
  H      -47.810    -118.196      57.366
  H      -46.991    -119.693      57.914
  H      -43.274    -123.180      58.670
  H      -43.549    -121.759      57.691
  H      -41.918    -122.264      58.059

 3  4  5  6  7  8  9  10  11  12  23  26  30  31 0
 6-311+G(2d,p)
 ****
 33  35  36  37  38 0
 6-311+G(2d,p)
 ****
 1  2  13  14  15  16  17  18  19  20  21  22  24  25 0
 3-21G
 ****
 27  28  29  32  34  39  40  41  42  43  44  45  46  47  48  49 0
 3-21G
 ****


