%nproc=1
%NoSave
%Mem=1900MB
#P OB98/GEN NMR

erre ene a

0 1
  C     -211.287      -5.539     222.110
  O     -210.656      -4.706     223.070
  P     -209.995      -5.335     224.389
  C     -207.558      -5.373     223.566
  O     -208.699      -6.154     223.905
  C     -206.478      -5.506     224.637
  O     -206.183      -6.910     224.833
  C     -205.170      -4.812     224.269
  O     -204.589      -4.261     225.458
  C     -204.270      -5.936     223.779
  O     -202.882      -5.608     223.953
  C     -204.771      -7.113     224.624
  N     -201.412     -10.834     223.500
  C     -201.283      -9.692     224.212
  N     -202.212      -8.739     224.449
  C     -203.393      -9.083     223.907
  C     -203.676     -10.214     223.160
  C     -202.621     -11.118     222.955
  N     -202.758     -12.290     222.240
  N     -204.994     -10.207     222.745
  C     -205.499      -9.104     223.252
  N     -204.572      -8.393     223.973
  O     -210.930      -6.110     225.254
  O     -209.366      -4.085     225.160
  H     -202.688      -4.861     223.352
  H     -209.483      -4.187     226.122
  H     -200.302      -9.521     224.646
  H     -206.516      -8.766     223.121
  H     -204.282      -7.141     225.605
  H     -204.447      -6.106     222.710
  H     -205.301      -4.027     223.517
  H     -206.870      -5.117     225.585
  H     -207.868      -4.327     223.493
  H     -201.982     -12.935     222.247
  H     -203.691     -12.586     221.984
  H     -207.177      -5.692     222.590
  P     -203.505      -3.087     225.229
  C     -205.528      -1.452     225.102
  O     -204.328      -1.907     224.523
  O     -202.280      -3.582     224.530
  O     -203.265      -2.592     226.735
  H     -204.042      -2.789     227.305
  H     -205.957      -0.678     224.460
  H     -205.329      -1.011     226.085
  H     -206.245      -2.270     225.202
  H     -211.663      -4.938     221.309
  H     -212.096      -6.065     222.571
  H     -210.577      -6.242     221.726

 3  4  5  6  7  8  9  10  11  12  22  25  29  30  31  32 0
 6-311+G(2d,p)
 ****
 33  36  37 0
 6-311+G(2d,p)
 ****
 1  2  13  14  15  16  17  18  19  20  21  23  24  26 0
 3-21G
 ****
 27  28  34  35  38  39  40  41  42  43  44  45  46  47  48 0
 3-21G
 ****


