%nproc=1
%NoSave
%Mem=1900MB
#P OB98/GEN NMR

erre ene a

0 1
  C      118.048     162.614     194.904
  O      118.646     163.903     195.079
  P      118.912     164.776     193.758
  C      117.532     166.743     194.802
  O      117.728     165.856     193.711
  C      116.194     167.465     194.655
  O      115.094     166.530     194.774
  C      115.940     168.526     195.714
  O      116.712     169.692     195.476
  C      114.434     168.715     195.578
  O      114.137     169.576     194.468
  C      113.959     167.279     195.273
  N      113.349     166.622     196.420
  C      111.957     166.580     196.426
  O      111.266     167.082     195.541
  N      111.383     165.957     197.501
  C      112.049     165.410     198.559
  O      111.480     164.855     199.489
  C      113.514     165.529     198.521
  C      114.090     166.120     197.471
  O      118.540     163.725     192.613
  O      120.298     165.324     193.692
  H      117.808     163.137     192.861
  H      114.591     169.191     193.691
  H      110.376     165.906     197.517
  H      114.073     165.129     199.358
  H      115.170     166.219     197.427
  H      113.223     167.290     194.458
  H      113.986     169.164     196.470
  H      116.174     168.124     196.708
  H      116.157     167.913     193.654
  H      118.338     167.483     194.832
  H      117.573     166.172     195.735
  P      118.089     169.830     196.294
  C      119.653     169.539     194.221
  O      119.196     169.033     195.455
  O      117.798     168.882     197.552
  O      118.436     171.237     196.649
  H      117.378     168.042     197.306
  H      120.614     169.073     193.984
  H      119.789     170.622     194.257
  H      118.937     169.286     193.433
  H      117.928     162.144     195.858
  H      118.678     162.010     194.285
  H      117.091     162.725     194.438

 3  4  5  6  7  8  9  10  11  12  13  24  28  29  30  31  32 0
 6-311+G(2d,p)
 ****
 33  34 0
 6-311+G(2d,p)
 ****
 1  2  14  15  16  17  18  19  20  21  22  23  25  26  27 0
 3-21G
 ****
 35  36  37  38  39  40  41  42  43  44  45 0
 3-21G
 ****


