%nproc=1
%NoSave
%Mem=1900MB
#P OB98/GEN NMR

erre ene a

0 1
  C     1092.559    -647.576     183.701
  O     1091.414    -647.844     182.923
  H     1093.138    -646.767     183.247
  H     1092.239    -647.244     184.699
  H     1093.177    -648.471     183.818
  P     1091.664    -648.506     181.477
  C     1091.840    -646.384     179.963
  O     1092.537    -647.431     180.653
  C     1092.812    -645.249     179.615
  O     1093.903    -645.806     178.828
  C     1092.160    -644.136     178.777
  O     1092.676    -642.865     179.211
  C     1092.628    -644.426     177.361
  O     1092.630    -643.270     176.545
  C     1094.007    -645.040     177.611
  N     1095.662    -645.017     172.781
  C     1095.406    -644.022     173.656
  N     1094.964    -644.103     174.928
  C     1094.858    -645.394     175.295
  C     1095.096    -646.518     174.523
  C     1095.496    -646.298     173.187
  N     1095.736    -647.305     172.306
  N     1094.821    -647.660     175.260
  C     1094.432    -647.246     176.439
  N     1094.438    -645.860     176.520
  O     1090.211    -648.415     180.800
  O     1092.196    -649.897     181.477
  H     1093.255    -642.620     176.944
  H     1089.656    -649.134     181.134
  H     1095.557    -643.012     173.263
  H     1094.140    -647.860     177.276
  H     1094.778    -644.253     177.764
  H     1091.962    -645.176     176.905
  H     1091.075    -644.126     178.861
  H     1093.241    -644.850     180.538
  H     1091.047    -646.004     180.623
  H     1095.967    -647.065     171.360
  H     1095.556    -648.275     172.588
  H     1091.391    -646.782     179.054
  P     1091.790    -642.041     180.255
  C     1090.823    -639.938     179.061
  O     1090.633    -641.289     179.449
  O     1092.786    -640.840     180.692
  O     1091.336    -642.837     181.433
  H     1092.792    -640.771     181.660
  H     1089.958    -639.593     178.535
  H     1091.680    -639.867     178.424
  H     1090.975    -639.335     179.932

 6  7  8  9  10  11  12  13  14  15  25  28  32  33  34  35 0
 6-311+G(2d,p)
 ****
 36  39  40 0
 6-311+G(2d,p)
 ****
 1  2  3  4  5  16  17  18  19  20  21  22  23  24 0
 3-21G
 ****
 26  27  29  30  31  37  38  41  42  43  44  45  46  47 0
 3-21G
 ****
 48 0
 3-21G
 ****


