%nproc=1
%NoSave
%Mem=1900MB
#P OB98/GEN NMR

erre ene a

0 1
  C      428.845     374.865    -121.151
  O      429.136     376.084    -120.493
  P      430.031     377.161    -121.280
  C      432.254     376.207    -120.324
  O      431.387     377.326    -120.438
  C      433.534     376.602    -119.591
  O      434.192     377.692    -120.269
  C      433.309     377.090    -118.168
  O      433.157     376.022    -117.248
  C      434.612     377.831    -117.906
  O      435.652     376.896    -117.565
  C      434.892     378.475    -119.267
  N      436.127     383.258    -118.176
  C      436.902     382.111    -118.141
  N      438.168     382.261    -117.692
  N      436.477     380.937    -118.514
  C      435.184     380.941    -118.930
  C      434.319     382.009    -119.011
  C      434.802     383.301    -118.588
  O      434.148     384.343    -118.545
  N      433.098     381.624    -119.493
  C      433.221     380.325    -119.702
  N      434.453     379.859    -119.334
  O      429.265     378.541    -121.016
  O      430.204     376.885    -122.734
  H      436.426     377.425    -117.296
  H      429.555     379.214    -121.657
  H      436.501     384.142    -117.874
  H      432.438     379.689    -120.097
  H      435.957     378.448    -119.522
  H      434.536     378.538    -117.074
  H      438.537     383.132    -117.334
  H      432.473     377.794    -118.117
  H      438.740     381.431    -117.597
  H      434.208     375.738    -119.599
  H      432.501     375.840    -121.325
  H      431.738     375.405    -119.783
  P      431.722     375.878    -116.538
  C      432.033     377.997    -115.070
  O      431.880     376.593    -115.114
  O      431.651     374.317    -116.183
  O      430.570     376.322    -117.375
  H      430.723     374.024    -116.137
  H      431.861     378.335    -114.042
  H      431.315     378.493    -115.726
  H      433.052     378.268    -115.359
  H      428.246     374.250    -120.513
  H      429.758     374.357    -121.381
  H      428.311     375.067    -122.056

 3  4  5  6  7  8  9  10  11  12  23  26  30  31 0
 6-311+G(2d,p)
 ****
 33  35  36  37  38 0
 6-311+G(2d,p)
 ****
 1  2  13  14  15  16  17  18  19  20  21  22  24  25 0
 3-21G
 ****
 27  28  29  32  34  39  40  41  42  43  44  45  46  47  48  49 0
 3-21G
 ****


