%nproc=1
%NoSave
%Mem=1900MB
#P OB98/GEN NMR

erre ene a

0 1
  C      240.471    -574.868     -11.144
  O      239.960    -573.783     -11.896
  H      241.415    -574.563     -10.687
  H      240.653    -575.726     -11.797
  H      239.768    -575.145     -10.354
  P      238.558    -574.029     -12.640
  C      239.772    -574.748     -14.833
  O      238.853    -573.861     -14.207
  C      240.020    -574.321     -16.282
  O      238.783    -574.524     -17.046
  C      240.397    -572.842     -16.456
  O      241.216    -572.723     -17.627
  C      239.045    -572.201     -16.711
  O      239.188    -570.890     -17.209
  C      238.436    -573.255     -17.630
  N      234.643    -570.870     -20.108
  C      235.990    -570.800     -20.242
  N      236.931    -571.472     -19.553
  C      236.370    -572.310     -18.666
  C      235.016    -572.495     -18.417
  C      234.129    -571.724     -19.191
  N      232.764    -571.785     -19.048
  N      234.827    -573.437     -17.421
  C      236.040    -573.813     -17.073
  N      237.004    -573.153     -17.789
  O      237.714    -572.717     -12.268
  O      237.841    -575.282     -12.261
  H      239.769    -570.884     -18.000
  H      237.146    -572.896     -11.496
  H      236.351    -570.108     -20.999
  H      236.280    -574.547     -16.308
  H      238.880    -573.222     -18.635
  H      238.468    -572.118     -15.778
  H      240.935    -572.435     -15.592
  H      240.769    -574.987     -16.728
  H      239.355    -575.763     -14.805
  H      240.723    -574.734     -14.288
  H      232.195    -571.181     -19.631
  H      232.362    -572.403     -18.358
  P      242.742    -573.236     -17.571
  C      243.479    -570.724     -17.450
  O      243.706    -572.017     -17.983
  O      242.819    -574.174     -18.881
  O      243.131    -573.993     -16.353
  H      243.497    -574.865     -18.737
  H      244.213    -570.046     -17.833
  H      243.550    -570.761     -16.383
  H      242.503    -570.389     -17.732

 6  7  8  9  10  11  12  13  14  15  25  28  32  33  34  35 0
 6-311+G(2d,p)
 ****
 36  37  40 0
 6-311+G(2d,p)
 ****
 1  2  3  4  5  16  17  18  19  20  21  22  23  24 0
 3-21G
 ****
 26  27  29  30  31  38  39 41  42  43  44  45  46  47  48 0
 3-21G
 ****


