%nproc=1
%NoSave
%Mem=1900MB
#P OB98/GEN NMR

erre ene a

0 1
  C      283.895    -238.449    -143.338
  O      285.078    -237.681    -143.391
  H      284.161    -239.494    -143.148
  H      283.366    -238.389    -144.298
  H      283.243    -238.099    -142.533
  P      284.909    -236.091    -143.546
  C      286.314    -235.781    -145.726
  O      285.027    -235.778    -145.119
  C      286.178    -235.737    -147.244
  O      287.495    -235.524    -147.825
  C      285.620    -237.038    -147.845
  O      284.773    -236.725    -148.953
  C      286.864    -237.760    -148.334
  O      286.613    -238.701    -149.365
  C      287.726    -236.573    -148.791
  N      289.145    -236.903    -148.868
  C      289.614    -237.448    -150.056
  O      288.942    -237.598    -151.076
  N      290.937    -237.830    -150.051
  C      291.794    -237.738    -148.994
  O      292.965    -238.124    -149.043
  C      291.235    -237.172    -147.761
  C      289.958    -236.781    -147.746
  O      286.286    -235.511    -142.959
  O      283.712    -235.499    -142.889
  H      286.201    -235.339    -141.999
  H      286.225    -238.222    -150.127
  H      291.295    -238.224    -150.906
  H      291.891    -237.096    -146.900
  H      289.515    -236.367    -146.853
  H      287.378    -236.201    -149.763
  H      287.348    -238.287    -147.509
  H      285.069    -237.643    -147.114
  H      285.552    -234.875    -147.526
  H      286.844    -236.696    -145.428
  H      286.882    -234.910    -145.366
  P      283.216    -237.115    -148.828
  C      283.416    -239.464    -149.978
  O      283.175    -238.723    -148.782
  O      282.685    -236.742    -150.290
  O      282.530    -236.419    -147.697
  H      283.318    -236.931    -150.997
  H      283.351    -240.511    -149.768
  H      284.393    -239.235    -150.349
  H      282.685    -239.202    -150.714

 6  7  8  9  10  11  12  13  14  15  16  27  31  32  33  34  35 0
 6-311+G(2d,p)
 ****
 36  37 0
 6-311+G(2d,p)
 ****
 1  2  3  4  5  17  18  19  20  21  22  23  24  25 0
 3-21G
 ****
 26  28  29  30  38  39  40  41  42  43  44  45 0
 3-21G
 ****


