%nproc=1
%NoSave
%Mem=1900MB
#P OB98/GEN NMR

erre ene a

0 1
  C     -436.016     283.620     133.255
  O     -436.788     283.052     132.217
  H     -434.969     283.633     132.948
  H     -436.107     283.025     134.168
  H     -436.343     284.647     133.447
  P     -438.351     282.843     132.507
  C     -439.167     284.663     130.843
  O     -439.075     284.240     132.194
  C     -438.777     286.136     130.744
  O     -437.399     286.307     131.147
  C     -438.859     286.706     129.337
  O     -440.185     287.032     128.949
  C     -437.980     287.938     129.469
  O     -438.707     289.055     129.996
  C     -436.893     287.466     130.453
  N     -435.631     287.193     129.774
  C     -434.611     288.113     129.997
  O     -434.741     289.103     130.718
  N     -433.440     287.883     129.330
  C     -433.210     286.874     128.440
  O     -432.156     286.756     127.833
  C     -434.329     285.939     128.231
  C     -435.474     286.139     128.892
  O     -438.415     282.726     134.103
  O     -438.963     281.660     131.834
  H     -438.579     281.801     134.359
  H     -439.068     288.758     130.859
  H     -432.687     288.540     129.478
  H     -434.183     285.127     127.530
  H     -436.314     285.474     128.744
  H     -436.708     288.232     131.217
  H     -437.579     288.239     128.504
  H     -438.397     286.014     128.617
  H     -439.413     286.713     131.430
  H     -440.196     284.547     130.488
  H     -438.511     284.043     130.226
  P     -440.967     285.986     128.007
  C     -443.029     285.735     129.623
  O     -441.907     285.137     128.993
  O     -439.777     284.992     127.624
  O     -441.651     286.636     126.855
  H     -439.081     284.972     128.307
  H     -443.523     285.010     130.236
  H     -443.708     286.093     128.877
  H     -442.703     286.553     130.231

 6  7  8  9  10  11  12  13  14  15  16  27  31  32  33  34  35 0
 6-311+G(2d,p)
 ****
 36  37 0
 6-311+G(2d,p)
 ****
 1  2  3  4  5  17  18  19  20  21  22  23  24  25 0
 3-21G
 ****
 26  28  29  30  38  39  40  41  42  43  44  45 0
 3-21G
 ****


