%nproc=1
%NoSave
%Mem=1900MB
#P OB98/GEN NMR

erre ene a

0 1
  C     -962.952      62.461     357.111
  O     -964.172      62.306     356.409
  H     -962.139      62.096     356.480
  H     -962.975      61.867     358.029
  H     -962.776      63.514     357.344
  P     -965.477      62.949     357.085
  C     -966.328      64.346     355.032
  O     -965.723      64.333     356.312
  C     -967.049      65.675     354.792
  O     -968.124      65.798     355.755
  C     -966.151      66.902     354.938
  O     -966.542      67.874     353.966
  C     -966.465      67.408     356.335
  O     -966.166      68.800     356.475
  C     -967.947      67.035     356.471
  N     -968.365      66.910     357.874
  C     -969.738      66.935     358.121
  O     -970.536      67.086     357.195
  N     -970.177      66.843     359.414
  C     -969.315      66.801     360.384
  N     -969.815      66.733     361.651
  C     -967.854      66.823     360.170
  C     -967.454      66.867     358.900
  O     -964.915      63.401     358.515
  O     -966.652      62.031     357.141
  H     -965.189      68.901     356.485
  H     -964.031      63.800     358.473
  H     -967.176      66.802     361.010
  H     -966.397      66.883     358.651
  H     -968.580      67.796     355.992
  H     -965.868      66.863     357.077
  H     -965.088      66.679     354.824
  H     -967.516      65.640     353.803
  H     -970.822      66.736     361.757
  H     -967.042      63.522     354.944
  H     -969.236      66.743     362.478
  H     -965.541      64.203     354.286
  P     -965.570      68.173     352.728
  C     -967.091      66.969     351.029
  O     -965.801      67.051     351.605
  O     -964.151      68.447     353.068
  O     -966.249      69.469     352.052
  H     -965.532      70.061     351.756
  H     -967.107      66.185     350.301
  H     -967.331      67.899     350.557
  H     -967.810      66.761     351.793

 6  7  8  9  10  11  12  13  14  15  16  26  30  31  32  33  35 0
 6-311+G(2d,p)
 ****
 37  38 0
 6-311+G(2d,p)
 ****
 1  2  3  4  5  17  18  19  20  21  22  23  24  25 0
 3-21G
 ****
 27  28  29  34  36  39  40  41  42  43  44  45  46 0
 3-21G
 ****


