%nproc=1
%NoSave
%Mem=1900MB
#P OB98/GEN NMR

erre ene a

0 1
  C       86.634     178.277     220.912
  O       86.804     179.319     219.975
  H       87.619     177.976     221.275
  H       86.155     177.423     220.433
  H       86.029     178.610     221.762
  P       85.527     180.171     219.523
  C       86.428     180.266     217.099
  O       85.952     181.004     218.217
  C       87.684     180.921     216.504
  O       87.491     182.362     216.481
  C       88.918     180.652     217.371
  O       90.124     180.669     216.598
  C       88.933     181.834     218.316
  O       90.225     182.103     218.870
  C       88.401     182.952     217.417
  N       88.651     187.729     219.209
  C       89.647     186.945     218.664
  N       90.885     187.514     218.592
  N       89.472     185.718     218.262
  C       88.208     185.257     218.468
  C       87.135     185.927     219.010
  C       87.345     187.299     219.422
  O       86.494     188.033     219.928
  N       86.019     185.129     219.063
  C       86.415     183.978     218.559
  N       87.726     184.013     218.160
  O       85.421     181.314     220.642
  O       84.246     179.401     219.400
  H       90.112     182.760     219.582
  H       84.512     181.668     220.682
  H       88.834     188.682     219.480
  H       85.788     183.100     218.439
  H       89.219     183.415     216.852
  H       88.273     181.609     219.158
  H       91.099     188.374     219.070
  H       88.861     179.711     217.914
  H       91.671     186.866     218.499
  H       87.817     180.599     215.462
  H       85.613     180.236     216.367
  H       86.639     179.226     217.395
  P       91.294     179.641     216.992
  C       93.385     181.212     216.549
  O       92.647     180.044     216.238
  O       90.863     178.275     216.280
  O       91.498     179.469     218.469
  H       90.672     177.586     216.956
  H       94.246     181.269     215.917
  H       93.696     181.176     217.572
  H       92.771     182.074     216.393

 6  7  8  9  10  11  12  13  14  15  26  29  33  34 0
 6-311+G(2d,p)
 ****
 36  38  39  40  41 0
 6-311+G(2d,p)
 ****
 1  2  3  4  5  16  17  18  19  20  21  22  23  24  25 0
 3-21G
 ****
 27  28  30  31  32  35  37  42  43  44  45  46  47 0
 3-21G
 ****
 48  49 0
 3-21G
 ****


