%nproc=1
%NoSave
%Mem=1900MB
#P OB98/GEN NMR

erre ene a

0 1
  C      107.361    -775.966     542.943
  O      108.372    -775.192     543.590
  P      109.180    -775.754     544.865
  C      107.909    -774.570     546.761
  O      108.220    -775.820     546.167
  C      107.695    -774.656     548.288
  O      107.506    -773.331     548.864
  C      106.482    -775.507     548.714
  O      106.835    -776.083     549.985
  C      105.397    -774.442     548.888
  O      104.298    -774.887     549.672
  C      106.212    -773.313     549.508
  N      102.753    -770.066     551.436
  C      103.298    -771.203     551.931
  N      104.232    -771.992     551.378
  C      104.650    -771.487     550.205
  C      104.196    -770.343     549.584
  C      103.185    -769.603     550.245
  N      102.618    -768.476     549.713
  N      104.844    -770.147     548.373
  C      105.664    -771.177     548.272
  N      105.583    -772.009     549.354
  O      110.497    -775.066     545.117
  O      109.440    -777.303     544.520
  H      104.620    -775.062     550.565
  H      110.360    -777.530     544.723
  H      102.901    -771.517     552.903
  H      106.321    -771.380     547.409
  H      106.372    -773.478     550.577
  H      105.009    -774.170     547.899
  H      106.219    -776.277     547.989
  H      108.614    -775.047     548.726
  H      107.002    -774.148     546.286
  H      101.827    -768.081     550.229
  H      102.833    -768.202     548.768
  H      108.743    -773.865     546.554
  P      106.848    -777.665     550.192
  C      104.427    -777.946     550.977
  O      105.349    -778.178     549.937
  O      107.440    -778.105     551.497
  O      107.668    -778.251     548.944
  H      107.981    -779.150     549.141
  H      104.590    -778.673     551.796
  H      103.408    -778.080     550.592
  H      104.519    -776.931     551.372
  H      106.954    -775.409     542.125
  H      106.583    -776.193     543.642
  H      107.788    -776.876     542.577

 3  4  5  6  7  8  9  10  11  12  22  25  29  30  31  32 0
 6-311+G(2d,p)
 ****
 33  36  37 0
 6-311+G(2d,p)
 ****
 1  2  13  14  15  16  17  18  19  20  21  23  24  26 0
 3-21G
 ****
 27  28  34  35  38  39  40  41  42  43  44  45  46  47  48 0
 3-21G
 ****


