%nproc=1
%NoSave
%Mem=1900MB
#P OB98/GEN NMR

erre ene a

0 1
  C      120.553    -955.292      39.808
  O      119.845    -954.851      38.667
  H      120.089    -954.862      40.697
  H      121.589    -954.954      39.755
  H      120.520    -956.382      39.885
  P      120.237    -955.530      37.268
  C      121.124    -953.220      36.480
  O      121.378    -954.607      36.615
  C      122.434    -952.455      36.304
  O      123.186    -952.465      37.541
  C      123.361    -953.030      35.237
  O      122.999    -952.595      33.933
  C      124.685    -952.438      35.676
  O      124.757    -951.056      35.276
  C      124.596    -952.550      37.203
  N      128.831    -954.953      38.611
  C      128.664    -953.681      38.080
  N      129.785    -952.958      37.888
  N      127.507    -953.181      37.761
  C      126.475    -954.021      37.995
  C      126.508    -955.295      38.520
  C      127.797    -955.844      38.880
  O      128.004    -956.949      39.372
  N      125.257    -955.838      38.613
  C      124.458    -954.896      38.141
  N      125.149    -953.781      37.741
  O      118.961    -955.235      36.339
  O      120.537    -956.990      37.326
  H      123.951    -950.628      35.606
  H      118.818    -956.002      35.747
  H      129.753    -955.304      38.826
  H      123.380    -954.980      38.061
  H      125.110    -951.719      37.714
  H      125.548    -952.940      35.223
  H      130.714    -953.310      38.066
  H      123.414    -954.124      35.300
  H      129.687    -952.023      37.533
  H      122.188    -951.413      36.074
  H      120.610    -952.857      37.374
  H      120.474    -953.067      35.611
  P      123.707    -953.328      32.687
  C      124.681    -951.148      31.661
  O      124.950    -952.400      32.289
  O      122.670    -953.076      31.494
  O      123.998    -954.777      32.888
  H      122.784    -953.754      30.811
  H      125.604    -950.646      31.457
  H      124.082    -950.544      32.311
  H      124.155    -951.315      30.744

 6  7  8  9  10  11  12  13  14  15  26  29  33  34 0
 6-311+G(2d,p)
 ****
 36  38  39  40  41 0
 6-311+G(2d,p)
 ****
 1  2  3  4  5  16  17  18  19  20  21  22  23  24  25 0
 3-21G
 ****
 27  28  30  31  32  35  37  42  43  44  45  46  47 0
 3-21G
 ****
 48  49 0
 3-21G
 ****


