%nproc=1
%NoSave
%Mem=1900MB
#P OB98/GEN NMR

erre ene a

0 1
  C     -141.050    -118.332    -179.095
  O     -141.406    -117.030    -179.565
  P     -141.674    -116.861    -181.144
  C     -139.442    -115.661    -181.798
  O     -140.223    -116.845    -181.833
  C     -138.042    -115.911    -182.374
  O     -137.285    -116.765    -181.460
  C     -138.033    -116.579    -183.749
  O     -136.940    -116.001    -184.485
  C     -137.740    -118.033    -183.427
  O     -137.200    -118.730    -184.546
  C     -136.782    -117.871    -182.241
  N     -136.663    -119.083    -181.441
  C     -135.907    -120.121    -181.974
  O     -135.417    -120.078    -183.102
  N     -135.771    -121.235    -181.189
  C     -136.376    -121.438    -179.978
  O     -136.217    -122.452    -179.309
  C     -137.260    -120.349    -179.514
  C     -137.358    -119.248    -180.256
  O     -142.166    -115.345    -181.219
  O     -142.632    -117.872    -181.682
  H     -141.711    -114.754    -180.597
  H     -136.266    -118.469    -184.659
  H     -135.200    -121.986    -181.544
  H     -137.796    -120.501    -178.591
  H     -138.017    -118.440    -179.959
  H     -135.782    -117.589    -182.598
  H     -138.659    -118.538    -183.117
  H     -138.964    -116.431    -184.304
  H     -137.518    -114.948    -182.417
  H     -139.342    -115.318    -180.765
  H     -139.961    -114.873    -182.350
  P     -137.282    -115.150    -185.813
  C     -137.962    -117.049    -187.486
  O     -138.361    -115.995    -186.643
  O     -135.927    -115.386    -186.647
  O     -137.577    -113.707    -185.580
  H     -135.647    -116.318    -186.665
  H     -138.842    -117.632    -187.766
  H     -137.247    -117.714    -186.981
  H     -137.504    -116.647    -188.394
  H     -140.902    -118.301    -178.036
  H     -140.146    -118.649    -179.572
  H     -141.835    -119.021    -179.325

 3  4  5  6  7  8  9  10  11  12  13  24  28  29  30  31  32 0
 6-311+G(2d,p)
 ****
 33  34 0
 6-311+G(2d,p)
 ****
 1  2  14  15  16  17  18  19  20  21  22  23  25  26  27 0
 3-21G
 ****
 35  36  37  38  39  40  41  42  43  44  45 0
 3-21G
 ****


