%nproc=1
%NoSave
%Mem=1900MB
#P OB98/GEN NMR

erre ene a

0 1
  C      133.759    -234.120    -180.002
  O      134.186    -235.141    -180.894
  P      133.621    -235.124    -182.395
  C      132.003    -237.095    -181.917
  O      132.140    -235.747    -182.343
  C      130.670    -237.685    -182.377
  O      129.586    -236.928    -181.775
  C      130.452    -237.665    -183.894
  O      129.678    -238.823    -184.229
  C      129.603    -236.425    -184.100
  O      128.892    -236.456    -185.334
  C      128.729    -236.480    -182.850
  N      124.405    -233.978    -181.758
  C      124.651    -235.282    -182.006
  N      125.831    -235.874    -182.289
  C      126.823    -234.968    -182.302
  C      126.720    -233.602    -182.102
  C      125.439    -233.102    -181.812
  N      125.188    -231.778    -181.547
  N      127.956    -232.999    -182.223
  C      128.790    -233.983    -182.492
  N      128.155    -235.192    -182.526
  O      134.483    -236.268    -183.109
  O      133.747    -233.821    -183.108
  H      128.394    -235.622    -185.421
  H      135.090    -235.868    -183.761
  H      123.785    -235.941    -181.966
  H      129.851    -233.872    -182.671
  H      127.909    -237.201    -182.951
  H      130.241    -235.534    -184.101
  H      131.379    -237.645    -184.479
  H      130.597    -238.712    -181.993
  H      132.042    -237.124    -180.827
  H      124.273    -231.520    -181.215
  H      125.974    -231.152    -181.400
  H      132.835    -237.689    -182.309
  P      130.012    -239.542    -185.623
  C      127.992    -238.377    -186.758
  O      129.384    -238.626    -186.774
  O      129.066    -240.834    -185.606
  O      131.450    -239.911    -185.792
  H      129.464    -241.546    -186.142
  H      127.806    -237.373    -187.150
  H      127.578    -238.443    -185.746
  H      127.489    -239.109    -187.398
  H      134.218    -234.266    -179.047
  H      132.695    -234.161    -179.896
  H      134.042    -233.165    -180.392

 3  4  5  6  7  8  9  10  11  12  22  25  29  30  31  32 0
 6-311+G(2d,p)
 ****
 33  36  37 0
 6-311+G(2d,p)
 ****
 1  2  13  14  15  16  17  18  19  20  21  23  24  26 0
 3-21G
 ****
 27  28  34  35  38  39  40  41  42  43  44  45  46  47  48 0
 3-21G
 ****


