%nproc=1
%NoSave
%Mem=1900MB
#P OB98/GEN NMR

erre ene a

0 1
  C      -50.858     -22.367     112.143
  O      -50.530     -21.512     111.070
  H      -51.623     -21.882     112.754
  H      -49.973     -22.541     112.762
  H      -51.250     -23.321     111.784
  P      -49.679     -22.098     109.847
  C      -47.178     -22.264     109.232
  O      -48.130     -21.961     110.241
  C      -45.931     -21.383     109.379
  O      -46.307     -19.997     109.169
  C      -45.342     -21.476     110.791
  O      -43.938     -21.231     110.804
  C      -46.047     -20.346     111.524
  O      -45.332     -19.891     112.672
  C      -46.171     -19.299     110.418
  N      -47.724     -14.667     111.873
  C      -46.486     -15.261     112.025
  N      -45.537     -14.519     112.644
  N      -46.212     -16.476     111.629
  C      -47.274     -17.123     111.093
  C      -48.553     -16.649     110.909
  C      -48.836     -15.291     111.321
  O      -49.920     -14.725     111.230
  N      -49.363     -17.602     110.342
  C      -48.579     -18.649     110.186
  N      -47.294     -18.399     110.603
  O      -49.844     -20.986     108.706
  O      -50.096     -23.452     109.360
  H      -45.752     -19.062     112.968
  H      -49.676     -21.374     107.828
  H      -47.874     -13.719     112.169
  H      -48.884     -19.598     109.764
  H      -45.264     -18.686     110.363
  H      -47.015     -20.715     111.872
  H      -45.765     -13.668     113.134
  H      -45.539     -22.433     111.267
  H      -44.746     -15.036     113.037
  H      -45.200     -21.633     108.603
  H      -47.664     -22.084     108.270
  H      -46.911     -23.320     109.267
  P      -42.942     -22.474     110.634
  C      -42.217     -24.533     112.129
  O      -43.115     -23.478     111.862
  O      -41.496     -21.836     110.861
  O      -43.046     -23.171     109.313
  H      -40.966     -21.894     110.044
  H      -42.540     -25.065     112.999
  H      -41.238     -24.134     112.298
  H      -42.191     -25.200     111.293

 6  7  8  9  10  11  12  13  14  15  26  29  33  34 0
 6-311+G(2d,p)
 ****
 36  38  39  40  41 0
 6-311+G(2d,p)
 ****
 1  2  3  4  5  16  17  18  19  20  21  22  23  24  25 0
 3-21G
 ****
 27  28  30  31  32  35  37  42  43  44  45  46  47 0
 3-21G
 ****
 48  49 0
 3-21G
 ****


