%nproc=1
%NoSave
%Mem=1900MB
#P OB98/GEN NMR

erre ene a

0 1
  C     -236.279     207.776     -27.532
  O     -235.822     207.928     -26.190
  P     -235.160     209.330     -25.788
  C     -232.702     208.559     -26.290
  O     -233.760     209.458     -26.566
  C     -231.335     209.263     -26.402
  O     -231.196     209.776     -27.751
  C     -231.144     210.468     -25.484
  O     -229.748     210.747     -25.374
  C     -231.819     211.567     -26.275
  O     -231.423     212.861     -25.827
  C     -231.434     211.214     -27.731
  N     -232.473     211.566     -28.723
  C     -232.497     212.866     -29.227
  O     -231.700     213.743     -28.891
  N     -233.502     213.153     -30.109
  C     -234.440     212.279     -30.565
  O     -235.373     212.613     -31.291
  C     -234.290     210.891     -30.113
  C     -233.340     210.605     -29.219
  O     -234.741     209.124     -24.256
  O     -236.071     210.501     -25.967
  H     -230.457     212.930     -26.003
  H     -235.359     209.604     -23.671
  H     -233.565     214.106     -30.432
  H     -234.980     210.148     -30.504
  H     -233.227     209.584     -28.858
  H     -230.509     211.725     -28.027
  H     -232.906     211.501     -26.148
  H     -231.581     210.354     -24.487
  H     -230.537     208.526     -26.242
  H     -232.745     207.706     -26.976
  H     -232.818     208.150     -25.277
  P     -228.993     210.292     -24.033
  C     -228.995     212.663     -23.035
  O     -229.438     211.328     -22.890
  O     -227.521     210.057     -24.153
  O     -229.776     208.957     -23.621
  H     -229.228     208.426     -23.003
  H     -229.726     213.328     -22.564
  H     -228.888     212.936     -24.091
  H     -228.028     212.778     -22.531
  H     -236.695     206.798     -27.659
  H     -235.457     207.904     -28.205
  H     -237.028     208.512     -27.739

 3  4  5  6  7  8  9  10  11  12  13  23  28  29  30  31  32 0
 6-311+G(2d,p)
 ****
 33  34 0
 6-311+G(2d,p)
 ****
 1  2  14  15  16  17  18  19  20  21  22  24  25  26  27 0
 3-21G
 ****
 35  36  37  38  39  40  41  42  43  44  45 0
 3-21G
 ****


