%nproc=1
%NoSave
%Mem=1900MB
#P OB98/GEN NMR

erre ene a

0 1
  C     1175.110    -158.730     352.410
  O     1175.383    -157.390     352.047
  H     1174.463    -159.172     351.646
  H     1174.598    -158.757     353.372
  H     1176.037    -159.314     352.466
  P     1176.491    -156.624     352.918
  C     1175.256    -154.699     354.153
  O     1176.014    -155.087     353.017
  C     1174.138    -153.737     353.738
  O     1174.696    -152.454     353.360
  C     1173.309    -154.212     352.540
  O     1172.297    -155.122     352.934
  C     1172.719    -152.896     352.083
  O     1171.638    -152.523     352.939
  C     1173.901    -151.924     352.252
  N     1174.149    -150.242     347.484
  C     1173.099    -150.225     348.382
  N     1171.934    -149.680     347.938
  N     1173.146    -150.707     349.592
  C     1174.373    -151.208     349.903
  C     1175.493    -151.290     349.100
  C     1175.408    -150.766     347.758
  O     1176.301    -150.726     346.928
  N     1176.548    -151.875     349.764
  C     1176.061    -152.174     350.947
  N     1174.748    -151.788     351.080
  O     1177.761    -156.554     351.939
  O     1176.844    -157.276     354.219
  H     1171.301    -151.662     352.618
  H     1178.580    -156.646     352.475
  H     1174.032    -149.884     346.546
  H     1176.611    -152.651     351.744
  H     1173.587    -150.919     352.545
  H     1172.315    -152.943     351.062
  H     1171.802    -149.344     347.004
  H     1173.953    -154.628     351.746
  H     1171.156    -149.619     348.597
  H     1173.496    -153.577     354.616
  H     1175.910    -154.199     354.874
  H     1174.818    -155.596     354.610
  P     1172.459    -156.660     352.476
  C     1170.274    -157.074     351.116
  O     1170.977    -157.237     352.356
  O     1173.040    -157.365     353.796
  O     1173.349    -156.872     351.290
  H     1173.508    -158.188     353.563
  H     1169.301    -157.512     351.197
  H     1170.818    -157.557     350.331
  H     1170.179    -156.032     350.894

 6  7  8  9  10  11  12  13  14  15  26  29  33  34 0
 6-311+G(2d,p)
 ****
 36  38  39  40  41 0
 6-311+G(2d,p)
 ****
 1  2  3  4  5  16  17  18  19  20  21  22  23  24  25 0
 3-21G
 ****
 27  28  30  31  32  35  37  42  43  44  45  46  47 0
 3-21G
 ****
 48  49 0
 3-21G
 ****


