%nproc=1
%NoSave
%Mem=1900MB
#P OB98/GEN NMR

erre ene a

0 1
  C     -898.130    -975.556    -899.210
  O     -898.660    -976.252    -898.120
  H     -898.890    -974.876    -899.630
  H     -897.810    -976.236    -900.000
  H     -897.270    -974.916    -898.910
  P     -897.630    -977.007    -897.180
  C     -897.700    -975.847    -894.870
  O     -897.040    -975.926    -896.110
  C     -896.830    -975.074    -893.860
  O     -895.610    -975.860    -893.560
  C     -896.330    -973.691    -894.380
  O     -896.380    -972.738    -893.290
  C     -894.920    -973.956    -894.830
  O     -894.110    -972.770    -894.790
  C     -894.490    -975.015    -893.790
  N     -889.550    -974.875    -894.720
  C     -890.370    -973.924    -894.130
  N     -889.790    -972.781    -893.750
  N     -891.650    -974.103    -893.950
  C     -892.070    -975.307    -894.350
  C     -891.380    -976.334    -894.960
  C     -889.950    -976.118    -895.180
  O     -889.160    -976.900    -895.710
  N     -892.190    -977.410    -895.270
  C     -893.370    -977.053    -894.860
  N     -893.390    -975.778    -894.260
  O     -896.370    -977.282    -898.150
  O     -898.100    -978.299    -896.580
  H     -894.260    -972.320    -893.940
  H     -896.230    -978.237    -898.290
  H     -888.550    -974.687    -894.860
  H     -894.300    -977.656    -894.930
  H     -894.180    -974.565    -892.830
  H     -894.880    -974.347    -895.830
  H     -888.780    -972.621    -893.790
  H     -897.000    -973.315    -895.210
  H     -890.370    -972.087    -893.230
  H     -897.390    -974.941    -892.900
  H     -897.860    -976.853    -894.470
  H     -898.680    -975.322    -894.970
  P     -897.560    -971.651    -893.290
  C     -899.020    -973.138    -891.790
  O     -898.960    -972.367    -892.960
  O     -897.710    -971.238    -894.900
  O     -897.260    -970.428    -892.510
  H     -897.300    -970.395    -895.040
  H     -900.000    -973.556    -891.688
  H     -898.807    -972.519    -890.944
  H     -898.300    -973.927    -891.845

 6  7  8  9  10  11  12  13  14  15  26  29  33  34 0
 6-311+G(2d,p)
 ****
 36  38  39  40  41 0
 6-311+G(2d,p)
 ****
 1  2  3  4  5  16  17  18  19  20  21  22  23  24  25 0
 3-21G
 ****
 27  28  30  31  32  35  37  42  43  44  45  46  47 0
 3-21G
 ****
 48  49 0
 3-21G
 ****


