%nproc=1
%NoSave
%Mem=1900MB
#P OB98/GEN NMR

erre ene a

0 1
  C      448.135     335.272    -346.503
  O      448.685     335.178    -347.802
  H      448.938     335.505    -345.799
  H      447.675     334.325    -346.215
  H      447.394     336.072    -346.467
  P      447.668     334.788    -348.983
  C      449.547     333.464    -350.152
  O      448.617     334.537    -350.257
  C      450.942     333.921    -350.589
  O      450.821     334.648    -351.839
  C      451.626     334.851    -349.576
  O      453.028     334.581    -349.570
  C      451.380     336.234    -350.163
  O      452.333     337.188    -349.706
  C      451.437     335.934    -351.661
  N      451.131     340.951    -352.499
  C      452.011     340.204    -351.811
  N      452.032     338.864    -351.656
  C      451.037     338.289    -352.359
  C      450.058     338.921    -353.107
  C      450.120     340.322    -353.159
  N      449.207     341.097    -353.833
  N      449.186     337.987    -353.639
  C      449.631     336.817    -353.225
  N      450.746     336.954    -352.432
  O      446.543     335.743    -349.208
  O      447.240     333.303    -348.571
  H      452.154     338.045    -350.150
  H      448.016     332.761    -348.324
  H      452.803     340.759    -351.304
  H      449.194     335.853    -353.458
  H      452.470     335.885    -352.047
  H      450.389     336.587    -349.877
  H      451.224     334.756    -348.569
  H      451.557     333.034    -350.793
  H      449.226     332.624    -350.783
  H      449.321     342.099    -353.818
  H      448.451     340.650    -354.336
  H      449.562     333.132    -349.110
  P      453.732     334.140    -348.207
  C      455.540     335.965    -348.022
  O      455.272     334.581    -348.244
  O      453.499     332.722    -347.788
  O      453.105     335.155    -347.135
  H      452.892     334.674    -346.310
  H      456.595     336.136    -348.070
  H      455.176     336.248    -347.056
  H      455.049     336.548    -348.773

 6  7  8  9  10  11  12  13  14  15  25  28  32  33  34  35 0
 6-311+G(2d,p)
 ****
 36  39  40 0
 6-311+G(2d,p)
 ****
 1  2  3  4  5  16  17  18  19  20  21  22  23  24 0
 3-21G
 ****
 26  27  29  30  31  37  38  41  42  43  44  45  46  47 0
 3-21G
 ****
 48 0
 3-21G
 ****


