%nproc=1
%NoSave
%Mem=1900MB
#P OB98/GEN NMR

erre ene a

0 1
  C        8.349      13.400      -4.654
  O        7.703      12.757      -3.576
  H        7.588      13.843      -5.302
  H        8.924      12.677      -5.237
  H        9.007      14.195      -4.294
  P        8.595      12.134      -2.399
  C        8.348       9.859      -3.582
  O        9.240      10.783      -2.971
  C        9.022       8.497      -3.716
  O       10.102       8.563      -4.673
  C        9.645       7.987      -2.421
  O        8.651       7.510      -1.537
  C       10.592       6.929      -2.966
  O        9.887       5.719      -3.280
  C       11.105       7.608      -4.258
  N       12.407       8.253      -4.082
  C       13.520       7.490      -4.419
  O       13.445       6.338      -4.838
  N       14.736       8.086      -4.212
  C       14.937       9.303      -3.629
  O       16.038       9.702      -3.263
  C       13.726      10.093      -3.365
  C       12.534       9.535      -3.584
  O        7.921      12.003      -1.075
  O        9.854      13.123      -2.320
  H        9.735      13.735      -1.569
  H        9.628       5.320      -2.426
  H       15.550       7.524      -4.408
  H       13.846      11.091      -2.962
  H       11.627      10.088      -3.368
  H       11.196       6.873      -5.067
  H       11.377       6.667      -2.255
  H       10.236       8.781      -1.951
  H        8.279       7.784      -4.095
  H        8.087      10.235      -4.577
  H        7.438       9.786      -2.979
  P        8.612       7.975      -0.008
  C        9.701       5.784       0.752
  O        9.775       7.203       0.778
  O        7.270       7.899       0.642
  O        9.143       9.486      -0.041
  H        8.497      10.062       0.411
  H       10.521       5.374       1.304
  H        9.747       5.443      -0.261
  H        8.779       5.467       1.194

 6  7  8  9  10  11  12  13  14  15  16  27  31  32  33  34  35 0
 6-311+G(2d,p)
 ****
 36  37 0
 6-311+G(2d,p)
 ****
 1  2  3  4  5  17  18  19  20  21  22  23  24  25 0
 3-21G
 ****
 26  28  29  30  38  39  40  41  42  43  44  45 0
 3-21G
 ****


