%nproc=1
%NoSave
%Mem=1900MB
#P OB98/GEN NMR

erre ene a

0 1
  C     -432.076     -12.806     183.588
  O     -431.393     -11.626     183.967
  H     -431.740     -13.134     182.602
  H     -431.852     -13.590     184.316
  H     -433.156     -12.631     183.576
  P     -431.613     -10.339     183.034
  C     -430.587      -8.770     184.828
  O     -430.519      -9.260     183.498
  C     -429.318      -9.135     185.589
  O     -429.287     -10.553     185.853
  C     -428.020      -8.832     184.848
  O     -427.664      -7.458     184.946
  C     -427.043      -9.715     185.611
  O     -426.673      -9.079     186.848
  C     -427.894     -10.962     185.897
  N     -425.668     -15.502     185.078
  C     -425.753     -14.718     186.180
  N     -426.380     -13.532     186.324
  C     -426.989     -13.175     185.183
  C     -427.016     -13.877     183.986
  C     -426.313     -15.095     183.954
  N     -426.184     -15.852     182.798
  N     -427.734     -13.182     183.026
  C     -428.107     -12.074     183.631
  N     -427.691     -12.026     184.933
  O     -432.999      -9.739     183.579
  O     -431.668     -10.618     181.568
  H     -426.099      -9.705     187.327
  H     -433.727     -10.047     183.008
  H     -425.238     -15.092     187.059
  H     -428.683     -11.281     183.164
  H     -427.709     -11.375     186.894
  H     -426.119      -9.913     185.060
  H     -428.064      -9.165     183.802
  H     -429.340      -8.619     186.560
  H     -431.452      -9.209     185.337
  H     -425.328     -16.396     182.770
  H     -426.450     -15.370     181.948
  H     -430.710      -7.681     184.795
  P     -426.755      -6.838     183.783
  C     -427.727      -4.499     184.328
  O     -426.552      -5.285     184.140
  O     -427.748      -6.815     182.528
  O     -425.510      -7.600     183.469
  H     -427.354      -7.308     181.777
  H     -427.449      -3.492     184.559
  H     -428.302      -4.904     185.134
  H     -428.312      -4.511     183.432

 6  7  8  9  10  11  12  13  14  15  25  28  32  33  34  35 0
 6-311+G(2d,p)
 ****
 36  39  40 0
 6-311+G(2d,p)
 ****
 1  2  3  4  5  16  17  18  19  20  21  22  23  24 0
 3-21G
 ****
 26  27  29  30  31  37  38  41  42  43  44  45  46  47  48 0
 3-21G
 ****


