%nproc=1
%NoSave
%Mem=1900MB
#P OB98/GEN NMR

erre ene a

0 1
  C     -187.145     103.185      76.843
  O     -187.940     104.109      76.129
  H     -187.000     102.295      76.225
  H     -187.646     102.891      77.770
  H     -186.169     103.622      77.069
  P     -188.323     105.471      76.884
  C     -190.917     105.474      76.724
  O     -189.690     105.992      76.226
  C     -192.083     106.237      76.104
  O     -193.334     105.630      76.503
  C     -192.179     107.691      76.544
  O     -191.253     108.520      75.865
  C     -193.624     108.003      76.189
  O     -193.759     108.366      74.805
  C     -194.337     106.665      76.486
  N     -195.099     106.712      77.729
  C     -196.420     106.284      77.646
  O     -196.934     105.886      76.599
  N     -197.149     106.361      78.801
  C     -196.706     106.851      79.994
  O     -197.433     106.963      80.975
  C     -195.296     107.278      80.029
  C     -194.571     107.200      78.909
  O     -187.225     106.505      76.350
  O     -188.340     105.385      78.375
  H     -186.539     106.643      77.030
  H     -193.415     109.276      74.726
  H     -198.112     106.065      78.756
  H     -194.911     107.666      80.964
  H     -193.536     107.526      78.905
  H     -195.033     106.416      75.673
  H     -194.008     108.841      76.773
  H     -192.059     107.768      77.632
  H     -192.001     106.168      75.010
  H     -190.949     105.595      77.812
  H     -190.977     104.406      76.486
  P     -189.938     108.999      76.647
  C     -191.275     110.925      77.836
  O     -190.171     110.538      77.037
  O     -188.873     109.056      75.456
  O     -189.561     108.117      77.788
  H     -189.262     109.349      74.613
  H     -191.255     111.985      77.983
  H     -191.219     110.432      78.784
  H     -192.185     110.651      77.344

 6  7  8  9  10  11  12  13  14  15  16  27  31  32  33  34  35 0
 6-311+G(2d,p)
 ****
 36  37 0
 6-311+G(2d,p)
 ****
 1  2  3  4  5  17  18  19  20  21  22  23  24  25 0
 3-21G
 ****
 26  28  29  30  38  39  40  41  42  43  44  45 0
 3-21G
 ****


