%nproc=1
%NoSave
%Mem=1900MB
#P OB98/GEN NMR

erre ene a

0 1
  C     1067.204      19.581    -621.946
  O     1067.858      20.419    -622.880
  H     1066.511      18.924    -622.484
  H     1066.637      20.181    -621.231
  H     1067.938      18.960    -621.415
  P     1068.902      21.478    -622.283
  C     1068.663      22.947    -624.408
  O     1068.570      22.880    -622.992
  C     1068.685      24.404    -624.869
  O     1067.365      24.980    -624.790
  C     1069.604      25.310    -624.061
  O     1070.945      25.210    -624.506
  C     1068.997      26.675    -624.341
  O     1069.426      27.196    -625.614
  C     1067.491      26.367    -624.357
  N     1064.215      29.227    -621.788
  C     1064.624      29.297    -623.105
  N     1064.115      30.317    -623.830
  N     1065.456      28.446    -623.657
  C     1065.906      27.512    -622.799
  C     1065.572      27.325    -621.471
  C     1064.626      28.246    -620.886
  O     1064.187      28.204    -619.736
  N     1066.224      26.246    -620.936
  C     1066.980      25.802    -621.926
  N     1066.837      26.539    -623.070
  O     1070.292      21.049    -622.959
  O     1069.004      21.506    -620.794
  H     1068.962      28.037    -625.784
  H     1071.026      21.267    -622.348
  H     1063.567      29.894    -621.418
  H     1067.647      24.949    -621.861
  H     1066.948      26.980    -625.079
  H     1069.292      27.411    -623.591
  H     1063.755      31.153    -623.394
  H     1069.529      25.092    -622.988
  H     1064.417      30.385    -624.797
  H     1068.978      24.406    -625.932
  H     1067.801      22.444    -624.846
  H     1069.580      22.439    -624.732
  P     1072.107      25.324    -623.405
  C     1073.796      25.261    -625.388
  O     1073.405      25.893    -624.178
  O     1072.501      23.804    -623.108
  O     1071.719      26.064    -622.165
  H     1072.993      23.747    -622.270
  H     1074.666      25.746    -625.779
  H     1073.000      25.329    -626.099
  H     1074.017      24.232    -625.197

 6  7  8  9  10  11  12  13  14  15  26  29  33  34 0
 6-311+G(2d,p)
 ****
 36  38  39  40  41 0
 6-311+G(2d,p)
 ****
 1  2  3  4  5  16  17  18  19  20  21  22  23  24  25 0
 3-21G
 ****
 27  28  30  31  32  35  37  42  43  44  45  46  47 0
 3-21G
 ****
 48  49 0
 3-21G
 ****


