%nproc=1
%NoSave
%Mem=1900MB
#P OB98/GEN NMR

erre ene a

0 1
  C      672.211    -897.303    -643.043
  O      671.979    -898.063    -644.208
  H      672.893    -897.873    -642.392
  H      671.289    -897.123    -642.499
  H      672.683    -896.363    -643.303
  P      670.885    -897.533    -645.265
  C      672.502    -897.743    -647.262
  O      671.718    -896.843    -646.454
  C      673.501    -896.953    -648.121
  O      672.733    -895.983    -648.908
  C      674.580    -896.163    -647.326
  O      675.785    -896.233    -648.046
  C      673.999    -894.773    -647.315
  O      675.003    -893.793    -647.098
  C      673.283    -894.683    -648.666
  N      672.259    -893.623    -648.676
  C      672.226    -892.813    -649.773
  O      672.977    -892.983    -650.740
  N      671.322    -891.753    -649.788
  C      670.589    -891.503    -648.732
  N      669.795    -890.433    -648.780
  C      670.656    -892.343    -647.505
  C      671.490    -893.363    -647.549
  O      669.794    -896.693    -644.707
  O      670.315    -898.883    -645.928
  H      675.782    -893.993    -647.653
  H      669.528    -899.193    -645.424
  H      670.048    -892.113    -646.652
  H      671.635    -894.053    -646.669
  H      673.997    -894.443    -649.461
  H      673.254    -894.683    -646.492
  H      674.679    -896.573    -646.290
  H      673.950    -897.653    -648.830
  H      669.789    -889.863    -649.642
  H      671.833    -898.303    -647.861
  H      669.189    -890.133    -648.013
  H      673.062    -898.423    -646.606
  P      676.911    -897.283    -647.624
  C      676.625    -899.003    -649.531
  O      676.471    -898.753    -648.130
  O      677.355    -897.213    -646.194
  O      678.144    -896.943    -648.617
  H      678.977    -897.153    -648.144
  H      676.305    -900.000    -649.753
  H      677.654    -898.890    -649.803
  H      676.031    -898.307    -650.085

 6  7  8  9  10  11  12  13  14  15  16  26  30  31  32  33  35 0
 6-311+G(2d,p)
 ****
 37  38 0
 6-311+G(2d,p)
 ****
 1  2  3  4  5  17  18  19  20  21  22  23  24  25 0
 3-21G
 ****
 27  28  29  34  36  39  40  41  42  43  44  45  46 0
 3-21G
 ****


