%nproc=1
%NoSave
%Mem=1900MB
#P OB98/GEN NMR

erre ene a

0 1
  C      -77.551     366.168     -20.382
  O      -77.601     364.866     -19.837
  H      -77.987     366.143     -21.385
  H      -76.516     366.515     -20.463
  H      -78.132     366.861     -19.768
  P      -76.913     364.612     -18.408
  C      -75.955     362.384     -19.323
  O      -76.751     363.015     -18.328
  C      -75.709     360.921     -18.954
  O      -75.080     360.812     -17.658
  C      -76.969     360.068     -18.843
  O      -77.541     359.741     -20.100
  C      -76.407     358.856     -18.126
  O      -75.660     358.047     -19.057
  C      -75.463     359.526     -17.096
  N      -76.088     359.707     -15.786
  C      -76.535     358.546     -15.139
  O      -76.405     357.442     -15.668
  N      -77.162     358.669     -13.923
  C      -77.343     359.843     -13.404
  N      -78.011     359.912     -12.218
  C      -76.869     361.087     -14.039
  C      -76.260     360.949     -15.218
  O      -77.579     365.249     -17.230
  O      -75.395     365.079     -18.611
  H      -75.256     357.325     -18.544
  H      -74.927     364.952     -17.749
  H      -77.049     362.043     -13.568
  H      -75.902     361.819     -15.758
  H      -74.543     358.941     -16.972
  H      -77.174     358.213     -17.686
  H      -77.710     360.548     -18.194
  H      -75.008     360.508     -19.691
  H      -78.355     359.043     -11.832
  H      -75.010     362.932     -19.400
  H      -78.428     360.781     -11.894
  H      -76.464     362.413     -20.290
  P      -79.030     360.267     -20.409
  C      -79.607     358.027     -21.613
  O      -79.548     359.442     -21.686
  O      -78.773     361.738     -20.985
  O      -79.975     360.261     -19.248
  H      -78.836     362.410     -20.281
  H      -79.971     357.637     -22.541
  H      -80.266     357.738     -20.822
  H      -78.628     357.639     -21.422

 6  7  8  9  10  11  12  13  14  15  16  26  30  31  32  33  35 0
 6-311+G(2d,p)
 ****
 37  38 0
 6-311+G(2d,p)
 ****
 1  2  3  4  5  17  18  19  20  21  22  23  24  25 0
 3-21G
 ****
 27  28  29  34  36  39  40  41  42  43  44  45  46 0
 3-21G
 ****


