%nproc=1
%NoSave
%Mem=1900MB
#P OB98/GEN NMR

erre ene a

0 1
  C      -83.541     -52.028    -207.137
  O      -82.772     -53.170    -206.753
  P      -82.682     -54.352    -207.836
  C      -84.198     -56.170    -206.780
  O      -82.873     -55.740    -207.051
  C      -84.221     -57.213    -205.657
  O      -84.143     -58.563    -206.208
  C      -83.061     -57.067    -204.659
  O      -83.576     -57.436    -203.373
  C      -82.074     -58.106    -205.164
  O      -81.076     -58.439    -204.214
  C      -83.043     -59.222    -205.543
  N      -80.404     -63.585    -205.583
  C      -80.833     -62.798    -204.573
  N      -81.529     -61.644    -204.645
  C      -81.784     -61.329    -205.926
  C      -81.411     -62.030    -207.062
  C      -80.685     -63.215    -206.855
  N      -80.226     -64.012    -207.877
  N      -81.839     -61.371    -208.205
  C      -82.392     -60.260    -207.754
  N      -82.455     -60.232    -206.390
  O      -81.140     -54.356    -208.256
  O      -83.592     -54.162    -209.004
  H      -81.494     -58.774    -203.396
  H      -81.015     -53.884    -209.100
  H      -80.578     -63.139    -203.573
  H      -82.760     -59.450    -208.370
  H      -83.447     -59.735    -204.661
  H      -81.565     -57.719    -206.054
  H      -82.653     -56.055    -204.604
  H      -85.179     -57.132    -205.130
  H      -84.643     -56.604    -207.679
  H      -79.709     -64.842    -207.631
  H      -80.405     -63.766    -208.839
  H      -84.811     -55.299    -206.524
  P      -83.679     -56.315    -202.230
  C      -82.234     -57.903    -200.827
  O      -83.404     -57.109    -200.862
  O      -85.268     -56.114    -202.159
  O      -82.912     -55.059    -202.466
  H      -85.728     -56.968    -202.083
  H      -82.125     -58.320    -199.822
  H      -81.356     -57.295    -201.058
  H      -82.319     -58.725    -201.543
  H      -83.532     -51.309    -206.345
  H      -84.549     -52.327    -207.336
  H      -83.118     -51.593    -208.018

 3  4  5  6  7  8  9  10  11  12  22  25  29  30  31  32 0
 6-311+G(2d,p)
 ****
 33  36  37 0
 6-311+G(2d,p)
 ****
 1  2  13  14  15  16  17  18  19  20  21  23  24  26 0
 3-21G
 ****
 27  28  34  35  38  39  40  41  42  43  44  45  46  47  48 0
 3-21G
 ****


