%nproc=1
%NoSave
%Mem=1900MB
#P OB98/GEN NMR

erre ene a

0 1
  C      408.784     -76.027    -567.265
  O      408.343     -76.750    -568.394
  P      408.708     -78.285    -568.651
  C      410.663     -78.849    -570.268
  O      410.276     -78.380    -568.979
  C      410.348     -77.846    -571.388
  O      410.726     -76.515    -570.964
  C      411.194     -78.161    -572.626
  O      410.768     -79.145    -573.548
  C      411.510     -76.803    -573.248
  O      410.641     -76.474    -574.330
  C      411.311     -75.829    -572.081
  N      415.437     -73.224    -573.460
  C      414.272     -73.451    -574.172
  N      414.298     -73.094    -575.474
  N      413.202     -73.996    -573.654
  C      413.367     -74.379    -572.360
  C      414.460     -74.199    -571.557
  C      415.619     -73.561    -572.130
  O      416.699     -73.417    -571.560
  N      414.295     -74.788    -570.329
  C      413.110     -75.360    -570.403
  N      412.527     -75.175    -571.637
  O      407.750     -79.071    -569.490
  O      408.637     -78.882    -567.151
  H      410.926     -75.624    -574.704
  H      408.308     -79.795    -567.220
  H      416.257     -72.874    -573.941
  H      412.651     -75.949    -569.619
  H      410.607     -75.032    -572.359
  H      412.528     -76.794    -573.657
  H      415.146     -72.815    -575.941
  H      412.159     -78.535    -572.267
  H      413.529     -73.395    -576.064
  H      409.274     -77.799    -571.585
  H      410.146     -79.794    -570.440
  H      411.739     -79.064    -570.273
  P      411.706     -80.120    -574.395
  C      411.832     -79.127    -576.756
  O      412.479     -79.250    -575.495
  O      410.683     -80.988    -575.278
  O      412.577     -81.023    -573.586
  H      411.112     -81.820    -575.556
  H      412.563     -78.792    -577.494
  H      411.030     -78.392    -576.681
  H      411.419     -80.091    -577.076
  H      408.413     -75.025    -567.316
  H      409.854     -76.011    -567.248
  H      408.420     -76.497    -566.376

 3  4  5  6  7  8  9  10  11  12  23  26  30  31 0
 6-311+G(2d,p)
 ****
 33  35  36  37  38 0
 6-311+G(2d,p)
 ****
 1  2  13  14  15  16  17  18  19  20  21  22  24  25 0
 3-21G
 ****
 27  28  29  32  34  39  40  41  42  43  44  45  46  47  48  49 0
 3-21G
 ****


