%nproc=1
%NoSave
%Mem=1900MB
#P OB98/GEN NMR

erre ene a

0 1
  C     -146.472    -131.983    -197.411
  O     -147.321    -132.442    -196.378
  H     -146.413    -130.892    -197.361
  H     -146.876    -132.270    -198.385
  H     -145.466    -132.396    -197.292
  P     -147.457    -134.029    -196.197
  C     -150.050    -134.062    -196.427
  O     -148.798    -134.458    -196.970
  C     -151.166    -134.933    -197.013
  O     -151.211    -134.725    -198.450
  C     -150.953    -136.436    -196.774
  O     -152.221    -137.055    -196.545
  C     -150.373    -136.917    -198.091
  O     -150.572    -138.306    -198.331
  C     -151.119    -136.019    -199.086
  N     -150.438    -135.916    -200.373
  C     -150.972    -136.627    -201.441
  O     -152.018    -137.278    -201.399
  N     -150.250    -136.579    -202.608
  C     -149.066    -135.928    -202.798
  O     -148.453    -135.939    -203.859
  C     -148.545    -135.199    -201.630
  C     -149.244    -135.228    -200.489
  O     -147.856    -134.192    -194.653
  O     -146.252    -134.826    -196.566
  H     -147.056    -134.286    -194.104
  H     -150.284    -138.498    -199.245
  H     -150.625    -137.090    -203.395
  H     -147.605    -134.674    -201.737
  H     -148.879    -134.715    -199.605
  H     -152.144    -136.381    -199.236
  H     -149.296    -136.719    -198.125
  H     -150.285    -136.639    -195.937
  H     -152.130    -134.601    -196.607
  H     -150.238    -133.015    -196.686
  H     -150.022    -134.165    -195.338
  P     -152.656    -137.304    -195.015
  C     -151.811    -139.774    -194.843
  O     -151.650    -138.421    -194.452
  O     -154.040    -138.077    -195.204
  O     -152.732    -136.043    -194.219
  H     -154.049    -138.683    -195.962
  H     -151.058    -140.373    -194.375
  H     -151.718    -139.851    -195.906
  H     -152.778    -140.119    -194.543

 6  7  8  9  10  11  12  13  14  15  16  27  31  32  33  34  35 0
 6-311+G(2d,p)
 ****
 36  37 0
 6-311+G(2d,p)
 ****
 1  2  3  4  5  17  18  19  20  21  22  23  24  25 0
 3-21G
 ****
 26  28  29  30  38  39  40  41  42  43  44  45 0
 3-21G
 ****


