%nproc=1
%NoSave
%Mem=1900MB
#P OB98/GEN NMR

erre ene a

0 1
  C      274.782     305.559    -347.568
  O      274.613     304.843    -348.795
  P      275.895     304.042    -349.347
  C      275.459     301.951    -347.858
  O      275.594     302.476    -349.174
  C      276.287     300.677    -347.700
  O      276.299     300.237    -346.328
  C      275.759     299.490    -348.491
  O      276.141     299.560    -349.859
  C      276.466     298.336    -347.794
  O      277.803     298.194    -348.311
  C      276.506     298.803    -346.331
  N      275.449     295.060    -343.080
  C      276.631     295.366    -343.726
  N      277.690     294.574    -343.441
  N      276.763     296.353    -344.571
  C      275.630     297.075    -344.732
  C      274.400     296.876    -344.152
  C      274.258     295.758    -343.242
  O      273.223     295.424    -342.670
  N      273.491     297.821    -344.552
  C      274.180     298.612    -345.351
  N      275.477     298.190    -345.505
  O      277.006     304.330    -348.227
  O      276.343     304.474    -350.703
  H      278.297     298.998    -348.056
  H      277.898     304.274    -348.619
  H      275.399     294.282    -342.444
  H      273.787     299.496    -345.840
  H      277.478     298.613    -345.865
  H      275.963     297.374    -347.949
  H      277.676     293.844    -342.748
  H      274.672     299.386    -348.372
  H      278.573     294.806    -343.878
  H      277.318     300.902    -348.001
  H      274.408     301.732    -347.651
  H      275.772     302.716    -347.139
  P      275.014     299.225    -350.951
  C      274.166     301.661    -351.233
  O      274.843     300.564    -351.812
  O      273.672     299.151    -350.078
  O      275.253     297.970    -351.723
  H      273.032     298.545    -350.494
  H      274.476     301.814    -350.195
  H      273.086     301.490    -351.272
  H      274.404     302.564    -351.801
  H      273.865     306.046    -347.310
  H      275.553     306.291    -347.686
  H      275.054     304.876    -346.791

 3  4  5  6  7  8  9  10  11  12  23  26  30  31  33  0
 6-311+G(2d,p)
 ****
 35  36  37  38 0
 6-311+G(2d,p)
 ****
 1  2  13  14  15  16  17  18  19  20  21  22  24  25  27  28  29 0
 3-21G
 ****
 32  34  39  40  41  42  43  44  45  46  47  48  49 0
 3-21G
 ****


