%nproc=1
%NoSave
%Mem=1900MB
#P OB98/GEN NMR

erre ene a

0 1
  C     -105.195      63.537     115.219
  O     -105.302      62.967     113.932
  P     -106.149      63.626     112.749
  C     -106.038      63.716     110.154
  O     -105.392      63.329     111.361
  C     -105.070      63.832     108.967
  O     -104.184      64.950     109.177
  C     -104.183      62.586     108.887
  O     -104.652      61.418     108.245
  C     -102.834      63.093     108.393
  O     -102.658      62.903     106.988
  C     -102.868      64.584     108.731
  N      -98.277      66.535     109.635
  C      -99.019      66.559     108.470
  N      -98.370      66.990     107.366
  N     -100.266      66.173     108.397
  C     -100.746      65.677     109.562
  C     -100.113      65.615     110.782
  C      -98.750      66.083     110.858
  O      -98.031      66.000     111.850
  N     -100.883      64.983     111.724
  C     -101.966      64.625     111.067
  N     -101.912      64.989     109.742
  O     -106.688      64.999     112.990
  O     -107.411      62.621     112.667
  H     -103.390      63.356     106.530
  H     -108.192      63.153     112.421
  H      -97.293      66.771     109.613
  H     -102.798      64.074     111.491
  H     -102.663      65.188     107.839
  H     -102.015      62.552     108.881
  H      -97.374      67.155     107.356
  H     -103.999      62.264     109.920
  H      -98.824      66.862     106.469
  H     -105.609      64.050     108.041
  H     -106.536      64.673     110.341
  H     -106.819      62.991     109.909
  P     -104.026      59.952     108.364
  C     -104.845      57.532     108.503
  O     -105.225      58.896     108.467
  O     -103.390      59.911     109.833
  O     -102.988      59.626     107.340
  H     -102.701      59.221     109.874
  H     -105.714      56.912     108.267
  H     -104.491      57.278     109.507
  H     -104.054      57.326     107.777
  H     -104.578      62.916     115.834
  H     -106.169      63.617     115.656
  H     -104.757      64.510     115.143

 3  4  5  6  7  8  9  10  11  12  23  26  30  31 0
 6-311+G(2d,p)
 ****
 33  35  36  37  38 0
 6-311+G(2d,p)
 ****
 1  2  13  14  15  16  17  18  19  20  21  22  24  25 0
 3-21G
 ****
 27  28  29  32  34  39  40  41  42  43  44  45  46  47  48  49 0
 3-21G
 ****


