%nproc=1
%NoSave
%Mem=1900MB
#P OB98/GEN NMR

erre ene a

0 1
  C     -206.195     148.569    -648.754
  O     -207.186     148.056    -649.627
  H     -205.957     149.594    -649.052
  H     -205.285     147.964    -648.836
  H     -206.553     148.570    -647.721
  P     -207.820     146.636    -649.240
  C     -206.288     145.180    -650.746
  O     -206.654     145.548    -649.428
  C     -206.128     143.665    -650.858
  O     -205.066     143.208    -649.985
  C     -207.372     142.873    -650.458
  O     -208.312     142.792    -651.527
  C     -206.759     141.517    -650.159
  O     -206.470     140.831    -651.401
  C     -205.454     141.913    -649.454
  N     -204.505     139.595    -645.036
  C     -204.254     139.175    -646.337
  N     -203.667     137.970    -646.476
  N     -204.541     139.877    -647.401
  C     -205.134     141.068    -647.108
  C     -205.438     141.592    -645.868
  C     -205.097     140.808    -644.700
  O     -205.283     141.139    -643.532
  N     -206.021     142.829    -645.972
  C     -206.091     143.042    -647.273
  N     -205.574     142.003    -648.008
  O     -208.809     146.325    -650.467
  O     -208.543     146.589    -647.936
  H     -207.325     140.567    -651.782
  H     -209.601     145.861    -650.124
  H     -204.270     139.011    -644.255
  H     -206.504     143.931    -647.731
  H     -204.637     141.205    -649.666
  H     -207.424     140.867    -649.589
  H     -203.468     137.352    -645.700
  H     -207.832     143.281    -649.550
  H     -203.447     137.651    -647.417
  H     -205.835     143.425    -651.890
  H     -205.336     145.662    -651.007
  H     -207.061     145.528    -651.446
  P     -209.876     142.821    -651.148
  C     -210.560     140.314    -651.267
  O     -210.173     141.410    -650.436
  O     -210.598     142.678    -652.575
  O     -210.323     144.041    -650.410
  H     -211.500     143.044    -652.533
  H     -210.723     139.447    -650.661
  H     -209.784     140.113    -651.976
  H     -211.462     140.561    -651.786

 6  7  8  9  10  11  12  13  14  15  26  29  33  34 0
 6-311+G(2d,p)
 ****
 36  38  39  40  41 0
 6-311+G(2d,p)
 ****
 1  2  3  4  5  16  17  18  19  20  21  22  23  24  25 0
 3-21G
 ****
 27  28  30  31  32  35  37  42  43  44  45  46  47 0
 3-21G
 ****
 48  49 0
 3-21G
 ****


