%nproc=1
%NoSave
%Mem=1900MB
#P OB98/GEN NMR

erre ene a

0 1
  C     -430.024     108.968    -480.069
  O     -430.748     107.768    -479.856
  H     -430.405     109.732    -479.387
  H     -430.150     109.307    -481.097
  H     -428.959     108.806    -479.860
  P     -430.320     106.504    -480.753
  C     -428.926     105.200    -478.972
  O     -430.135     105.272    -479.736
  C     -429.150     104.311    -477.757
  O     -430.070     104.943    -476.832
  C     -429.775     102.948    -478.079
  O     -428.815     102.026    -478.603
  C     -430.324     102.555    -476.714
  O     -429.315     101.954    -475.884
  C     -430.774     103.889    -476.125
  N     -435.278     102.840    -473.969
  C     -434.005     102.568    -473.588
  N     -432.854     102.894    -474.206
  C     -433.114     103.595    -475.336
  C     -434.359     103.949    -475.844
  C     -435.480     103.538    -475.104
  N     -436.784     103.797    -475.503
  N     -434.211     104.637    -477.043
  C     -432.912     104.700    -477.254
  N     -432.204     104.097    -476.226
  O     -428.824     106.861    -481.192
  O     -431.201     106.237    -481.926
  H     -429.742     101.834    -475.004
  H     -428.833     107.213    -482.104
  H     -433.902     102.010    -472.646
  H     -432.427     105.168    -478.091
  H     -430.498     103.985    -475.064
  H     -431.135     101.826    -476.821
  H     -430.611     103.083    -478.779
  H     -428.188     104.184    -477.222
  H     -428.637     106.210    -478.636
  H     -428.130     104.791    -479.608
  H     -437.523     103.408    -474.968
  H     -436.933     104.222    -476.413
  P     -429.391     100.777    -479.413
  C     -429.544     101.473    -481.933
  O     -428.781     100.852    -480.903
  O     -430.945     101.113    -479.631
  O     -429.198      99.448    -478.731
  H     -431.469     100.289    -479.588
  H     -428.998     101.438    -482.852
  H     -429.734     102.493    -481.670
  H     -430.473     100.955    -482.050

 6  7  8  9  10  11  12  13  14  15  25  28  32  33  34  35 0
 6-311+G(2d,p)
 ****
 36  37  40 0
 6-311+G(2d,p)
 ****
 1  2  3  4  5  16  17  18  19  20  21  22  23  24 0
 3-21G
 ****
 26  27  29  30  31  38  39 41  42  43  44  45  46  47  48 0
 3-21G
 ****


