%nproc=1
%NoSave
%Mem=1900MB
#P OB98/GEN NMR

erre ene a

0 1
  C     -194.280     104.130      98.084
  O     -195.598     103.936      98.558
  H     -193.822     104.947      98.643
  H     -194.303     104.399      97.025
  H     -193.681     103.224      98.226
  P     -196.382     102.636      98.043
  C     -198.585     103.871      97.421
  O     -197.947     102.927      98.268
  C     -199.241     104.968      98.262
  O     -198.243     105.984      98.560
  C     -200.415     105.669      97.564
  O     -201.405     105.986      98.553
  C     -199.791     106.955      97.052
  O     -200.728     108.003      96.835
  C     -198.796     107.259      98.177
  N     -197.744     108.185      97.761
  C     -198.137     109.461      97.362
  O     -199.288     109.889      97.418
  N     -197.132     110.263      96.883
  C     -195.820     109.917      96.742
  O     -194.973     110.674      96.285
  C     -195.471     108.556      97.170
  C     -196.434     107.765      97.649
  O     -196.044     101.544      99.164
  O     -196.028     102.174      96.669
  H     -195.231     101.058      98.933
  H     -201.109     108.239      97.706
  H     -197.399     111.190      96.590
  H     -194.438     108.241      97.064
  H     -196.213     106.746      97.954
  H     -199.319     107.664      99.051
  H     -199.268     106.765      96.109
  H     -200.872     105.084      96.760
  H     -199.556     104.536      99.220
  H     -199.353     103.367      96.829
  H     -197.842     104.304      96.741
  P     -202.872     105.366      98.355
  C     -204.117     107.663      98.150
  O     -203.887     106.480      98.901
  O     -202.878     104.231      99.479
  O     -203.117     104.884      96.964
  H     -202.387     104.482     100.279
  H     -204.818     108.283      98.668
  H     -204.511     107.405      97.189
  H     -203.195     108.192      98.027

 6  7  8  9  10  11  12  13  14  15  16  27  31  32  33  34  35 0
 6-311+G(2d,p)
 ****
 36  37 0
 6-311+G(2d,p)
 ****
 1  2  3  4  5  17  18  19  20  21  22  23  24  25 0
 3-21G
 ****
 26  28  29  30  38  39  40  41  42  43  44  45 0
 3-21G
 ****


