%nproc=1
%NoSave
%Mem=1900MB
#P OB98/GEN NMR

erre ene a

0 1
  C      215.783     -36.558    -899.050
  O      214.935     -36.770    -897.900
  P      214.460     -35.496    -897.070
  C      211.865     -36.055    -896.920
  O      212.911     -35.203    -897.380
  C      211.380     -36.940    -898.080
  O      212.440     -37.779    -898.560
  C      210.216     -37.832    -897.720
  O      208.941     -37.175    -897.870
  C      210.388     -39.002    -898.660
  O      209.910     -38.648    -900.000
  C      211.940     -39.142    -898.690
  N      212.561     -39.976    -897.620
  C      213.339     -41.088    -897.970
  O      213.594     -41.418    -899.120
  N      213.911     -41.774    -896.930
  C      213.899     -41.412    -895.620
  O      214.461     -42.045    -894.730
  C      213.168     -40.169    -895.310
  C      212.546     -39.549    -896.300
  O      215.212     -34.267    -897.770
  O      214.755     -35.560    -895.610
  H      208.936     -38.664    -899.940
  H      215.840     -33.844    -897.160
  H      214.436     -42.607    -897.160
  H      213.166     -39.817    -894.290
  H      212.001     -38.607    -896.090
  H      212.276     -39.556    -899.650
  H      209.802     -39.878    -898.380
  H      210.325     -38.219    -896.690
  H      211.077     -36.256    -898.930
  H      211.038     -35.486    -896.520
  H      212.240     -36.675    -896.100
  P      208.497     -36.098    -896.770
  C      208.963     -33.993    -898.210
  O      209.371     -34.788    -897.080
  O      208.485     -36.564    -895.350
  O      207.043     -35.659    -897.280
  H      206.341     -36.173    -896.800
  H      209.525     -33.066    -898.210
  H      207.888     -33.778    -898.130
  H      209.178     -34.555    -899.130
  H      216.016     -37.500    -899.500
  H      216.687     -36.076    -898.742
  H      215.274     -35.940    -899.760

 3  4  5  6  7  8  9  10  11  12  13  23  28  29  30  31  32 0
 6-311+G(2d,p)
 ****
 33  34 0
 6-311+G(2d,p)
 ****
 1  2  14  15  16  17  18  19  20  21  22  24  25  26  27 0
 3-21G
 ****
 35  36  37  38  39  40  41  42  43  44  45 0
 3-21G
 ****


