%nproc=1
%NoSave
%Mem=1900MB
#P OB98/GEN NMR

erre ene a

0 1
  C     -217.161    -931.756    -310.454
  O     -217.301    -931.071    -311.689
  H     -216.207    -931.476    -310.009
  H     -217.162    -932.839    -310.628
  H     -217.974    -931.483    -309.779
  P     -218.630    -931.380    -312.529
  C     -218.407    -928.981    -313.499
  O     -218.616    -930.362    -313.773
  C     -217.161    -928.484    -314.235
  O     -217.188    -928.908    -315.620
  C     -216.995    -926.977    -314.238
  O     -216.410    -926.506    -313.034
  C     -216.094    -926.766    -315.450
  O     -214.720    -927.027    -315.124
  C     -216.633    -927.824    -316.424
  N     -217.391    -925.440    -320.816
  C     -216.228    -925.839    -320.213
  N     -215.081    -925.506    -320.841
  N     -216.171    -926.489    -319.075
  C     -217.402    -926.721    -318.539
  C     -218.625    -926.391    -319.047
  C     -218.668    -925.687    -320.318
  O     -219.680    -925.359    -320.937
  N     -219.648    -926.812    -318.228
  C     -219.010    -927.361    -317.205
  N     -217.644    -927.321    -317.344
  O     -219.797    -930.800    -311.597
  O     -218.862    -932.817    -312.869
  H     -214.603    -927.988    -314.971
  H     -220.611    -931.325    -311.743
  H     -217.373    -924.948    -321.691
  H     -219.509    -927.813    -316.346
  H     -215.847    -928.255    -317.050
  H     -216.154    -925.745    -315.819
  H     -215.034    -924.739    -321.503
  H     -217.971    -926.465    -314.410
  H     -214.212    -925.778    -320.387
  H     -216.289    -928.965    -313.764
  H     -218.267    -928.844    -312.415
  H     -219.284    -928.423    -313.818
  P     -216.816    -925.054    -312.507
  C     -216.190    -925.830    -310.103
  O     -216.037    -924.836    -311.109
  O     -218.337    -925.228    -312.058
  O     -216.637    -923.951    -313.504
  H     -218.772    -924.355    -311.965
  H     -215.621    -925.554    -309.240
  H     -215.840    -926.770    -310.475
  H     -217.223    -925.913    -309.838

 6  7  8  9  10  11  12  13  14  15  26  29  33  34 0
 6-311+G(2d,p)
 ****
 36  38  39  40  41 0
 6-311+G(2d,p)
 ****
 1  2  3  4  5  16  17  18  19  20  21  22  23  24  25 0
 3-21G
 ****
 27  28  30  31  32  35  37  42  43  44  45  46  47 0
 3-21G
 ****
 48  49 0
 3-21G
 ****


