%nproc=1
%NoSave
%Mem=1900MB
#P OB98/GEN NMR

erre ene a

0 1
  C     -769.528     -68.997     223.777
  O     -769.697     -68.270     224.979
  H     -770.502     -69.247     223.347
  H     -768.973     -68.377     223.064
  H     -768.956     -69.911     223.967
  P     -770.466     -69.022     226.169
  C     -769.487     -67.769     228.223
  O     -770.597     -67.954     227.365
  C     -769.697     -66.545     229.108
  O     -769.906     -65.375     228.297
  C     -770.920     -66.626     230.023
  O     -770.656     -67.402     231.184
  C     -771.111     -65.157     230.366
  O     -770.174     -64.765     231.388
  C     -770.760     -64.464     229.043
  N     -774.902     -61.473     228.632
  C     -773.879     -61.495     229.520
  N     -772.806     -62.304     229.548
  C     -772.819     -63.156     228.513
  C     -773.781     -63.250     227.511
  C     -774.858     -62.352     227.595
  N     -775.937     -62.394     226.712
  N     -773.465     -64.266     226.626
  C     -772.358     -64.790     227.097
  N     -771.927     -64.155     228.232
  O     -769.360     -70.060     226.707
  O     -771.729     -69.714     225.776
  H     -770.485     -63.906     231.736
  H     -769.518     -70.931     226.302
  H     -773.945     -60.757     230.319
  H     -771.833     -65.628     226.652
  H     -770.197     -63.536     229.189
  H     -772.116     -64.930     230.747
  H     -771.806     -66.987     229.480
  H     -768.782     -66.385     229.698
  H     -768.576     -67.625     227.624
  H     -776.802     -62.073     227.124
  H     -775.976     -63.232     226.136
  H     -769.365     -68.667     228.840
  P     -771.912     -68.033     231.959
  C     -770.857     -70.377     232.295
  O     -771.334     -69.180     232.919
  O     -772.670     -68.849     230.807
  O     -772.830     -67.047     232.609
  H     -773.604     -68.549     230.741
  H     -770.502     -71.053     233.045
  H     -770.058     -70.136     231.625
  H     -771.654     -70.837     231.749

 6  7  8  9  10  11  12  13  14  15  25  28  32  33  34  35 0
 6-311+G(2d,p)
 ****
 36  39  40 0
 6-311+G(2d,p)
 ****
 1  2  3  4  5  16  17  18  19  20  21  22  23  24 0
 3-21G
 ****
 26  27  29  30  31  37  38  41  42  43  44  45  46  47  48 0
 3-21G
 ****


