%nproc=1
%NoSave
%Mem=1900MB
#P OB98/GEN NMR

erre ene a

0 1
  C      386.343    -371.216    -248.630
  O      385.283    -372.087    -248.273
  P      385.211    -372.604    -246.758
  C      385.792    -374.974    -245.834
  O      386.177    -373.889    -246.664
  C      386.600    -376.232    -246.186
  O      386.242    -376.653    -247.528
  C      388.122    -376.046    -246.161
  O      388.691    -377.293    -245.747
  C      388.459    -375.783    -247.613
  O      389.828    -376.048    -247.920
  C      387.461    -376.701    -248.302
  N      387.669    -378.039    -253.187
  C      388.135    -378.699    -252.065
  N      388.682    -379.918    -252.275
  N      388.073    -378.217    -250.848
  C      387.486    -376.993    -250.792
  C      387.021    -376.221    -251.834
  C      387.063    -376.784    -253.168
  O      386.582    -376.271    -254.180
  N      386.574    -375.001    -251.398
  C      386.698    -375.074    -250.084
  N      387.199    -376.276    -249.670
  O      383.741    -373.223    -246.655
  O      385.476    -371.572    -245.698
  H      390.044    -376.937    -247.587
  H      383.106    -372.568    -246.304
  H      387.730    -378.467    -254.096
  H      386.433    -374.291    -249.386
  H      387.801    -377.746    -248.342
  H      388.263    -374.728    -247.858
  H      388.736    -380.366    -253.181
  H      388.455    -375.238    -245.495
  H      389.004    -380.443    -251.464
  H      386.301    -377.034    -245.500
  H      384.725    -375.191    -245.998
  H      385.928    -374.701    -244.782
  P      390.271    -377.342    -245.477
  C      391.965    -378.757    -246.832
  O      390.991    -377.736    -246.853
  O      390.435    -378.670    -244.588
  O      390.828    -376.153    -244.760
  H      391.175    -378.561    -243.960
  H      392.063    -379.175    -247.844
  H      391.698    -379.567    -246.148
  H      392.933    -378.336    -246.533
  H      386.259    -370.958    -249.665
  H      387.279    -371.705    -248.459
  H      386.290    -370.328    -248.036

 3  4  5  6  7  8  9  10  11  12  23  26  30  31 0
 6-311+G(2d,p)
 ****
 33  35  36  37  38 0
 6-311+G(2d,p)
 ****
 1  2  13  14  15  16  17  18  19  20  21  22  24  25 0
 3-21G
 ****
 27  28  29  32  34  39  40  41  42  43  44  45  46  47  48  49 0
 3-21G
 ****


