%nproc=1
%NoSave
%Mem=1900MB
#P OB98/GEN NMR

erre ene a

0 1
  C       10.355     129.904    -202.854
  O        9.745     131.159    -203.081
  H        9.855     129.153    -203.471
  H       10.252     129.621    -201.802
  H       11.413     129.942    -203.131
  P       10.324     132.398    -202.242
  C        8.091     133.712    -202.375
  O        9.057     133.091    -201.540
  C        6.946     134.272    -201.538
  O        5.943     133.259    -201.300
  C        7.363     134.800    -200.170
  O        7.868     136.122    -200.263
  C        6.047     134.728    -199.409
  O        5.201     135.857    -199.707
  C        5.434     133.428    -199.949
  N        4.234     130.879    -195.759
  C        3.672     132.015    -196.304
  N        2.671     132.587    -195.596
  N        4.057     132.550    -197.432
  C        5.087     131.888    -198.010
  C        5.719     130.744    -197.578
  C        5.259     130.146    -196.344
  O        5.674     129.106    -195.842
  N        6.709     130.366    -198.448
  C        6.701     131.297    -199.383
  N        5.745     132.253    -199.152
  O       10.736     133.456    -203.374
  O       11.470     132.082    -201.342
  H        5.098     135.934    -200.671
  H       11.495     133.982    -203.057
  H        3.881     130.506    -194.897
  H        7.361     131.324    -200.238
  H        4.342     133.484    -200.018
  H        6.206     134.733    -198.329
  H        2.566     132.427    -194.604
  H        8.093     134.130    -199.701
  H        2.266     133.433    -195.978
  H        6.468     135.067    -202.126
  H        7.696     132.969    -203.075
  H        8.570     134.518    -202.943
  P        9.299     136.421    -199.597
  C        8.361     138.809    -199.157
  O        9.095     137.702    -198.651
  O       10.160     136.998    -200.815
  O        9.947     135.241    -198.957
  H       11.111     136.961    -200.598
  H        8.314     139.576    -198.412
  H        7.370     138.495    -199.408
  H        8.847     139.190    -200.031

 6  7  8  9  10  11  12  13  14  15  26  29  33  34 0
 6-311+G(2d,p)
 ****
 36  38  39  40  41 0
 6-311+G(2d,p)
 ****
 1  2  3  4  5  16  17  18  19  20  21  22  23  24  25 0
 3-21G
 ****
 27  28  30  31  32  35  37  42  43  44  45  46  47 0
 3-21G
 ****
 48  49 0
 3-21G
 ****


