%nproc=1
%NoSave
%Mem=1900MB
#P OB98/GEN NMR

erre ene a

0 1
  C      666.016    -410.170       1.920
  O      667.141    -409.645       2.592
  H      665.645    -409.420       1.218
  H      665.225    -410.399       2.637
  H      666.282    -411.071       1.358
  P      667.992    -410.608       3.548
  C      670.508    -410.032       3.641
  O      669.206    -409.736       4.124
  C      671.568    -409.239       4.413
  O      671.083    -407.874       4.606
  C      671.889    -409.809       5.813
  O      673.254    -409.480       6.095
  C      670.939    -408.996       6.675
  O      671.210    -409.123       8.047
  C      671.128    -407.614       6.027
  N      670.142    -406.609       6.403
  C      670.456    -405.755       7.454
  O      671.513    -405.783       8.085
  N      669.500    -404.827       7.777
  C      668.295    -404.672       7.159
  O      667.488    -403.804       7.471
  C      668.013    -405.610       6.057
  C      668.936    -406.517       5.733
  O      668.383    -411.926       2.961
  O      667.048    -410.794       4.830
  H      666.604    -411.660       4.790
  H      672.101    -408.754       8.231
  H      669.713    -404.199       8.531
  H      667.065    -405.520       5.551
  H      668.764    -407.218       4.921
  H      672.131    -407.238       6.250
  H      669.913    -409.356       6.538
  H      671.750    -410.891       5.877
  H      672.475    -409.167       3.800
  H      670.547    -409.760       2.580
  H      670.696    -411.105       3.739
  P      674.502    -410.231       5.416
  C      676.020    -408.135       5.300
  O      675.841    -409.447       5.824
  O      674.354    -410.438       3.942
  O      674.624    -411.631       6.189
  H      675.049    -412.290       5.602
  H      676.948    -407.734       5.651
  H      675.215    -407.509       5.624
  H      676.031    -408.176       4.231

 6  7  8  9  10  11  12  13  14  15  16  27  31  32  33  34  35 0
 6-311+G(2d,p)
 ****
 36  37 0
 6-311+G(2d,p)
 ****
 1  2  3  4  5  17  18  19  20  21  22  23  24  25 0
 3-21G
 ****
 26  28  29  30  38  39  40  41  42  43  44  45 0
 3-21G
 ****


