%nproc=1
%NoSave
%Mem=1900MB
#P OB98/GEN NMR

erre ene a

0 1
  C     -891.870     845.306     496.976
  O     -892.570     846.510     496.678
  P     -893.810     846.445     495.676
  C     -892.780     848.064     493.918
  O     -893.880     847.822     494.827
  C     -892.950     849.446     493.263
  O     -894.120     849.442     492.403
  C     -893.210     850.568     494.260
  O     -892.130     850.943     495.095
  C     -893.800     851.634     493.390
  O     -892.810     852.393     492.705
  C     -894.630     850.801     492.358
  N     -896.080     850.812     492.630
  C     -896.720     852.007     492.357
  O     -896.170     853.006     491.909
  N     -898.090     852.012     492.614
  C     -898.800     850.999     493.143
  O     -900.000     851.057     493.391
  C     -898.040     849.770     493.451
  C     -896.720     849.746     493.210
  O     -895.130     846.034     496.288
  O     -893.380     845.391     494.585
  H     -892.370     851.779     492.086
  H     -894.140     844.822     494.364
  H     -898.590     852.863     492.382
  H     -898.590     848.941     493.894
  H     -896.150     848.852     493.416
  H     -894.490     851.181     491.337
  H     -894.400     852.347     493.966
  H     -894.020     850.223     494.937
  H     -892.070     849.644     492.643
  H     -892.740     847.274     493.167
  H     -891.830     848.018     494.496
  P     -891.990     850.448     496.618
  C     -891.990     852.884     497.490
  O     -891.320     851.625     497.459
  O     -891.470     849.063     496.850
  O     -893.520     850.505     497.109
  H     -893.660     849.793     497.777
  H     -891.390     853.596     498.103
  H     -892.990     852.783     497.964
  H     -892.080     853.300     496.478
  H     -891.072     845.517     497.657
  H     -891.469     844.894     496.074
  H     -892.543     844.603     497.421

 3  4  5  6  7  8  9  10  11  12  13  23  28  29  30  31  32 0
 6-311+G(2d,p)
 ****
 33  34 0
 6-311+G(2d,p)
 ****
 1  2  14  15  16  17  18  19  20  21  22  24  25  26  27 0
 3-21G
 ****
 35  36  37  38  39  40  41  42  43  44  45 0
 3-21G
 ****


