%nproc=1
%NoSave
%Mem=1900MB
#P OB98/GEN NMR

erre ene a

0 1
  C      316.882      56.951     133.275
  O      317.525      55.699     133.408
  H      316.670      57.347     134.272
  H      315.938      56.834     132.735
  H      317.529      57.654     132.745
  P      317.865      54.926     132.044
  C      317.216      52.620     133.031
  O      318.239      53.422     132.460
  C      317.670      51.166     133.129
  O      316.646      50.350     133.740
  C      318.004      50.520     131.788
  O      319.327      50.833     131.389
  C      317.824      49.045     132.119
  O      318.980      48.522     132.807
  C      316.604      49.071     133.051
  N      312.606      46.032     132.524
  C      313.778      45.848     133.229
  N      313.924      44.666     133.868
  N      314.735      46.737     133.294
  C      314.481      47.847     132.560
  C      313.361      48.147     131.820
  C      312.288      47.177     131.802
  O      311.194      47.315     131.265
  N      313.471      49.382     131.232
  C      314.667      49.809     131.591
  N      315.322      48.912     132.392
  O      319.277      55.547     131.605
  O      316.854      55.067     130.957
  H      319.159      49.070     133.591
  H      319.291      55.634     130.633
  H      311.892      45.326     132.534
  H      315.098      50.760     131.307
  H      316.659      48.290     133.818
  H      317.704      48.442     131.216
  H      313.375      43.854     133.621
  H      317.279      50.810     131.019
  H      314.813      44.504     134.321
  H      318.541      51.137     133.797
  H      316.324      52.681     132.399
  H      316.975      53.000     134.029
  P      319.599      51.145     129.842
  C      319.986      48.658     129.213
  O      320.523      49.972     129.255
  O      320.584      52.407     129.901
  O      318.374      51.458     129.047
  H      320.100      53.217     129.657
  H      320.712      47.989     128.800
  H      319.107      48.651     128.603
  H      319.734      48.344     130.204

 6  7  8  9  10  11  12  13  14  15  26  29  33  34 0
 6-311+G(2d,p)
 ****
 36  38  39  40  41 0
 6-311+G(2d,p)
 ****
 1  2  3  4  5  16  17  18  19  20  21  22  23  24  25 0
 3-21G
 ****
 27  28  30  31  32  35  37  42  43  44  45  46  47 0
 3-21G
 ****
 48  49 0
 3-21G
 ****


