%nproc=1
%NoSave
%Mem=1900MB
#P OB98/GEN NMR

erre ene a

0 1
  C     -124.967      34.451     151.186
  O     -125.244      34.184     152.547
  H     -125.597      33.807     150.566
  H     -123.917      34.242     150.963
  H     -125.194      35.497     150.955
  P     -124.335      34.955     153.627
  C     -121.810      34.741     154.253
  O     -122.870      34.329     153.401
  C     -120.510      34.062     153.833
  O     -120.636      32.623     153.922
  C     -120.084      34.341     152.392
  O     -119.496      35.620     152.217
  C     -119.077      33.220     152.197
  O     -117.858      33.542     152.895
  C     -119.814      32.044     152.870
  N     -120.645      31.276     151.932
  C     -119.969      30.472     151.009
  O     -118.740      30.426     150.993
  N     -120.705      29.762     150.088
  C     -122.001      29.827     150.103
  N     -122.674      29.103     149.166
  C     -122.755      30.651     151.067
  C     -122.022      31.339     151.943
  O     -124.784      34.305     155.020
  O     -124.395      36.446     153.591
  H     -117.498      34.342     152.469
  H     -124.177      34.606     155.743
  H     -123.834      30.684     151.029
  H     -122.508      31.967     152.683
  H     -119.104      31.356     153.349
  H     -118.811      33.056     151.151
  H     -120.918      34.194     151.690
  H     -119.729      34.368     154.544
  H     -122.131      28.597     148.482
  H     -122.067      34.461     155.282
  H     -123.668      29.205     149.000
  H     -121.684      35.827     154.200
  P     -120.014      36.504     150.979
  C     -119.833      36.325     148.383
  O     -119.365      35.876     149.652
  O     -119.228      37.883     151.160
  O     -121.501      36.708     150.929
  H     -119.772      38.636     150.870
  H     -119.304      35.813     147.606
  H     -119.667      37.378     148.294
  H     -120.880      36.120     148.296

 6  7  8  9  10  11  12  13  14  15  16  26  30  31  32  33  35 0
 6-311+G(2d,p)
 ****
 37  38 0
 6-311+G(2d,p)
 ****
 1  2  3  4  5  17  18  19  20  21  22  23  24  25 0
 3-21G
 ****
 27  28  29  34  36  39  40  41  42  43  44  45  46 0
 3-21G
 ****


