%nproc=1
%NoSave
%Mem=1900MB
#P OB98/GEN NMR

erre ene a

0 1
  C      505.412    -203.339    -869.057
  O      504.155    -203.672    -868.495
  P      503.979    -205.165    -867.936
  C      503.081    -205.872    -870.266
  O      502.860    -205.853    -868.857
  C      502.191    -206.930    -870.920
  O      502.596    -208.239    -870.499
  C      500.719    -206.812    -870.547
  O      500.104    -205.765    -871.278
  C      500.213    -208.205    -870.918
  O      499.842    -208.270    -872.305
  C      501.436    -209.097    -870.633
  N      501.256    -209.928    -869.447
  C      500.823    -211.246    -869.690
  O      500.612    -211.629    -870.837
  N      500.618    -212.076    -868.614
  C      500.818    -211.627    -867.412
  N      500.603    -212.493    -866.383
  C      501.254    -210.251    -867.114
  C      501.444    -209.464    -868.175
  O      503.216    -204.937    -866.541
  O      505.246    -205.925    -867.766
  H      499.287    -209.072    -872.394
  H      503.401    -205.666    -865.922
  H      501.400    -209.927    -866.098
  H      501.766    -208.426    -868.049
  H      501.641    -209.761    -871.478
  H      499.327    -208.480    -870.346
  H      500.607    -206.653    -869.472
  H      502.320    -206.853    -872.009
  H      500.300    -213.432    -866.616
  H      504.129    -206.122    -870.468
  H      500.752    -212.258    -865.412
  H      502.877    -204.880    -870.674
  P      499.481    -204.549    -870.442
  C      497.358    -205.920    -869.943
  O      497.890    -204.756    -870.553
  O      499.723    -203.307    -871.414
  O      500.022    -204.317    -869.070
  H      499.470    -202.474    -870.972
  H      496.268    -205.851    -869.953
  H      497.695    -205.994    -868.900
  H      497.666    -206.803    -870.502
  H      505.396    -202.322    -869.389
  H      505.613    -203.982    -869.888
  H      506.177    -203.461    -868.318

 3  4  5  6  7  8  9  10  11  12  13  21  23  27  28  29  30  32 0
 6-311+G(2d,p)
 ****
 34  35 0
 6-311+G(2d,p)
 ****
 1  2  14  15  16  17  18  19  20  22  24  25  26 0
 3-21G
 ****
 31  33  36  37  38  39  40  41  42  43  44  45  46 0
 3-21G
 ****


