%nproc=1
%NoSave
%Mem=1900MB
#P OB98/GEN NMR

erre ene a

0 1
  C      -34.396     -88.354     103.253
  O      -35.209     -89.202     102.467
  H      -34.215     -87.429     102.700
  H      -33.438     -88.837     103.452
  H      -34.894     -88.109     104.196
  P      -35.796     -90.517     103.170
  C      -37.781     -90.820     104.821
  O      -36.689     -90.013     104.406
  C      -38.698     -90.021     105.747
  O      -37.908     -89.527     106.866
  C      -39.357     -88.808     105.078
  O      -40.676     -88.659     105.613
  C      -38.497     -87.649     105.546
  O      -39.156     -86.391     105.511
  C      -38.142     -88.107     106.964
  N      -36.971     -87.418     107.501
  C      -37.114     -86.071     107.822
  O      -38.170     -85.445     107.767
  N      -35.966     -85.437     108.225
  C      -34.725     -85.993     108.312
  O      -33.732     -85.366     108.660
  C      -34.636     -87.415     107.951
  C      -35.745     -88.050     107.566
  O      -34.509     -91.152     103.876
  O      -36.483     -91.479     102.259
  H      -34.056     -91.767     103.269
  H      -38.584     -85.748     105.978
  H      -36.052     -84.461     108.461
  H      -33.665     -87.888     107.997
  H      -35.711     -89.094     107.273
  H      -38.996     -87.962     107.636
  H      -37.598     -87.578     104.923
  H      -39.405     -88.870     103.986
  H      -39.454     -90.698     106.162
  H      -37.402     -91.693     105.361
  H      -38.332     -91.161     103.939
  P      -41.901     -89.157     104.702
  C      -41.790     -91.674     103.986
  O      -42.054     -90.723     105.007
  O      -41.248     -89.095     103.246
  O      -43.132     -88.334     104.882
  H      -40.304     -89.328     103.242
  H      -41.943     -92.661     104.370
  H      -40.777     -91.572     103.657
  H      -42.451     -91.505     103.162

 6  7  8  9  10  11  12  13  14  15  16  27  31  32  33  34  35 0
 6-311+G(2d,p)
 ****
 36  37 0
 6-311+G(2d,p)
 ****
 1  2  3  4  5  17  18  19  20  21  22  23  24  25 0
 3-21G
 ****
 26  28  29  30  38  39  40  41  42  43  44  45 0
 3-21G
 ****


