%nproc=1
%NoSave
%Mem=1900MB
#P OB98/GEN NMR

erre ene a

0 1
  C     -325.883      93.725     369.227
  O     -326.980      94.614     369.172
  H     -324.973      94.273     368.971
  H     -326.010      92.906     368.513
  H     -325.771      93.321     370.240
  P     -328.453      94.026     369.399
  C     -330.048      92.473     368.080
  O     -328.750      93.047     368.164
  C     -330.245      91.762     366.731
  O     -330.378      92.768     365.686
  C     -329.073      90.846     366.342
  O     -329.610      89.780     365.538
  C     -328.233      91.778     365.486
  O     -327.271      91.075     364.739
  C     -329.336      92.516     364.713
  N     -328.863      93.738     364.086
  C     -328.639      93.687     362.709
  O     -328.826      92.637     362.093
  N     -328.172      94.810     362.072
  C     -327.891      95.868     362.762
  N     -327.413      96.947     362.071
  C     -328.055      95.953     364.228
  C     -328.544      94.865     364.820
  O     -329.524      95.034     369.668
  O     -328.280      93.016     370.629
  H     -327.709      90.449     364.112
  H     -328.653      93.416     371.438
  H     -327.781      96.850     364.759
  H     -328.700      94.829     365.895
  H     -329.766      91.870     363.937
  H     -327.679      92.481     366.116
  H     -328.541      90.436     367.199
  H     -331.189      91.212     366.763
  H     -327.309      96.842     361.066
  H     -330.777      93.283     368.181
  H     -327.145      97.818     362.501
  H     -330.195      91.757     368.900
  P     -329.911      88.322     366.129
  C     -328.747      86.542     367.600
  O     -328.619      87.788     366.920
  O     -330.440      87.351     365.112
  O     -330.991      88.551     367.288
  H     -331.566      87.760     367.354
  H     -327.823      86.303     368.083
  H     -328.991      85.775     366.895
  H     -329.524      86.614     368.332

 6  7  8  9  10  11  12  13  14  15  16  26  30  31  32  33  35 0
 6-311+G(2d,p)
 ****
 37  38 0
 6-311+G(2d,p)
 ****
 1  2  3  4  5  17  18  19  20  21  22  23  24  25 0
 3-21G
 ****
 27  28  29  34  36  39  40  41  42  43  44  45  46 0
 3-21G
 ****


