%nproc=1
%NoSave
%Mem=1900MB
#P OB98/GEN NMR

erre ene a

0 1
  C      152.207    -140.114     -17.479
  O      151.702    -139.238     -18.490
  P      150.268    -138.561     -18.234
  C      148.790    -140.479     -19.224
  O      149.232    -139.778     -18.073
  C      147.905    -141.666     -18.831
  O      147.251    -142.205     -20.020
  C      148.654    -142.815     -18.148
  O      147.775    -143.348     -17.145
  C      148.837    -143.820     -19.272
  O      149.050    -145.135     -18.781
  C      147.528    -143.621     -20.044
  N      147.596    -144.131     -21.411
  C      146.655    -145.088     -21.774
  O      145.845    -145.563     -20.980
  N      146.710    -145.517     -23.073
  C      147.641    -145.148     -24.000
  O      147.640    -145.566     -25.151
  C      148.678    -144.220     -23.525
  C      148.609    -143.764     -22.272
  O      149.946    -137.951     -19.673
  O      150.281    -137.576     -17.111
  H      150.249    -138.508     -20.409
  H      149.266    -145.726     -19.534
  H      146.015    -146.190     -23.364
  H      149.468    -143.950     -24.216
  H      149.368    -143.097     -21.886
  H      146.700    -144.123     -19.530
  H      149.697    -143.535     -19.889
  H      149.592    -142.499     -17.687
  H      147.113    -141.294     -18.169
  H      149.652    -140.851     -19.784
  H      148.255    -139.785     -19.883
  P      148.268    -143.320     -15.614
  C      149.624    -145.559     -15.692
  O      149.632    -144.155     -15.543
  O      147.199    -144.323     -14.960
  O      148.265    -141.974     -14.971
  H      147.083    -145.142     -15.470
  H      150.651    -145.903     -15.847
  H      149.020    -145.864     -16.549
  H      149.236    -146.026     -14.781
  H      153.163    -140.491     -17.778
  H      151.529    -140.930     -17.343
  H      152.308    -139.577     -16.559

 3  4  5  6  7  8  9  10  11  12  13  24  28  29  30  31  32 0
 6-311+G(2d,p)
 ****
 33  34 0
 6-311+G(2d,p)
 ****
 1  2  14  15  16  17  18  19  20  21  22  23  25  26  27 0
 3-21G
 ****
 35  36  37  38  39  40  41  42  43  44  45 0
 3-21G
 ****


