%nproc=1
%NoSave
%Mem=1900MB
#P OB98/GEN NMR

erre ene a

0 1
  C       77.637    -269.442      29.690
  O       77.827    -268.745      28.459
  P       76.731    -268.917      27.298
  C       76.490    -270.257      25.108
  O       77.215    -270.098      26.323
  C       77.443    -270.457      23.925
  O       77.985    -269.207      23.459
  C       78.647    -271.321      24.266
  O       78.285    -272.686      24.362
  C       79.593    -270.977      23.121
  O       79.280    -271.743      21.947
  C       79.282    -269.481      22.879
  N       80.304    -268.588      23.407
  C       80.869    -267.692      22.488
  O       80.528    -267.718      21.305
  N       81.817    -266.803      22.935
  C       82.174    -266.815      24.186
  N       83.114    -265.912      24.573
  C       81.609    -267.749      25.181
  C       80.695    -268.605      24.725
  O       76.310    -267.657      26.615
  O       75.498    -269.597      28.071
  H       78.377    -271.475      21.684
  H       74.665    -269.324      27.639
  H       81.936    -267.716      26.212
  H       80.232    -269.327      25.389
  H       79.187    -269.282      21.804
  H       80.636    -271.191      23.379
  H       79.083    -270.984      25.218
  H       76.876    -270.920      23.103
  H       83.492    -265.287      23.870
  H       75.865    -269.373      24.937
  H       83.420    -265.806      25.530
  H       75.805    -271.109      25.212
  P       77.710    -273.210      25.767
  C       78.418    -273.062      28.257
  O       78.673    -272.661      26.923
  O       78.038    -274.781      25.726
  O       76.247    -272.968      25.975
  H       77.336    -275.273      26.189
  H       79.318    -272.872      28.854
  H       78.176    -274.130      28.315
  H       77.593    -272.476      28.668
  H       78.448    -269.223      30.353
  H       77.604    -270.495      29.502
  H       76.717    -269.130      30.138

 3  4  5  6  7  8  9  10  11  12  13  23  27  28  29  30  32 0
 6-311+G(2d,p)
 ****
 34  35 0
 6-311+G(2d,p)
 ****
 1  2  14  15  16  17  18  19  20  21  22  24  25  26 0
 3-21G
 ****
 31  33  36  37  38  39  40  41  42  43  44  45  46 0
 3-21G
 ****


