%nproc=1
%NoSave
%Mem=1900MB
#P OB98/GEN NMR

erre ene a

0 1
  C      306.966     380.606     106.190
  O      306.060     381.241     107.078
  P      305.189     382.473     106.512
  C      305.804     383.800     108.671
  O      304.787     383.367     107.785
  C      305.197     384.564     109.849
  O      304.522     385.740     109.332
  C      304.172     383.774     110.675
  O      304.280     384.238     112.029
  C      302.847     384.224     110.087
  O      301.753     384.009     110.975
  C      303.151     385.686     109.784
  N      299.255     388.777     108.849
  C      299.820     388.406     110.053
  N      299.306     388.988     111.159
  N      300.796     387.542     110.164
  C      301.215     387.061     108.969
  C      300.713     387.320     107.720
  C      299.661     388.302     107.608
  O      299.190     388.726     106.551
  N      301.343     386.565     106.761
  C      302.273     385.910     107.421
  N      302.267     386.212     108.760
  O      303.814     381.772     106.088
  O      305.811     383.244     105.388
  H      300.960     384.426     110.578
  H      303.819     381.526     105.142
  H      298.517     389.463     108.820
  H      302.979     385.219     106.991
  H      303.051     386.330     110.667
  H      302.641     383.659     109.166
  H      298.573     389.681     111.146
  H      304.314     382.695     110.630
  H      299.723     388.757     112.052
  H      306.017     384.913     110.490
  H      306.486     384.461     108.134
  H      306.374     382.932     109.021
  P      303.698     383.296     113.189
  C      301.497     384.505     113.831
  O      302.839     384.222     114.175
  O      305.006     382.957     114.053
  O      303.035     382.050     112.709
  H      304.919     382.059     114.440
  H      300.945     384.784     114.738
  H      301.004     383.647     113.369
  H      301.475     385.353     113.134
  H      307.470     379.813     106.702
  H      307.684     381.319     105.843
  H      306.427     380.207     105.356

 3  4  5  6  7  8  9  10  11  12  23  26  30  31 0
 6-311+G(2d,p)
 ****
 33  35  36  37  38 0
 6-311+G(2d,p)
 ****
 1  2  13  14  15  16  17  18  19  20  21  22  24  25 0
 3-21G
 ****
 27  28  29  32  34  39  40  41  42  43  44  45  46  47  48  49 0
 3-21G
 ****


