%nproc=1
%NoSave
%Mem=1900MB
#P OB98/GEN NMR

erre ene a

0 1
  C      129.469      -2.340       5.561
  O      130.456      -3.343       5.440
  H      129.553      -1.888       6.553
  H      128.471      -2.772       5.460
  H      129.617      -1.561       4.810
  P      130.543      -4.167       4.066
  C      128.593      -4.917       2.534
  O      129.059      -4.753       3.864
  C      127.076      -4.766       2.484
  O      126.665      -3.450       2.914
  C      126.461      -4.923       1.098
  O      126.431      -6.261       0.633
  C      125.073      -4.372       1.363
  O      124.295      -5.345       2.082
  C      125.405      -3.150       2.251
  N      125.510      -1.909       1.485
  C      124.864      -0.788       2.017
  O      124.237      -0.865       3.072
  N      124.914       0.397       1.322
  C      125.533       0.450       0.184
  N      125.545       1.647      -0.465
  C      126.209      -0.711      -0.423
  C      126.162      -1.845       0.273
  O      131.647      -5.170       3.973
  O      130.603      -3.044       2.927
  H      124.226      -6.131       1.511
  H      130.669      -3.502       2.055
  H      126.686      -0.622      -1.387
  H      126.630      -2.744      -0.111
  H      124.649      -3.020       3.035
  H      124.523      -4.129       0.452
  H      126.961      -4.270       0.372
  H      126.650      -5.484       3.197
  H      125.072       2.426      -0.025
  H      128.901      -5.907       2.184
  H      125.936       1.761      -1.390
  H      129.037      -4.156       1.885
  P      125.698      -6.528      -0.773
  C      123.403      -5.580      -1.582
  O      124.150      -6.191      -0.542
  O      125.737      -8.119      -0.904
  O      126.310      -5.836      -1.950
  H      126.473      -8.401      -1.481
  H      122.395      -5.429      -1.256
  H      123.408      -6.214      -2.444
  H      123.843      -4.637      -1.830

 6  7  8  9  10  11  12  13  14  15  16  26  30  31  32  33  35 0
 6-311+G(2d,p)
 ****
 37  38 0
 6-311+G(2d,p)
 ****
 1  2  3  4  5  17  18  19  20  21  22  23  24  25 0
 3-21G
 ****
 27  28  29  34  36  39  40  41  42  43  44  45  46 0
 3-21G
 ****


