%nproc=1
%NoSave
%Mem=1900MB
#P OB98/GEN NMR

erre ene a

0 1
  C       69.594     300.135     216.409
  O       68.862     301.156     217.064
  P       69.481     301.748     218.424
  C       68.132     301.010     220.523
  O       69.131     300.678     219.564
  C       66.751     300.599     220.009
  O       66.816     299.303     219.395
  C       65.694     300.490     221.101
  O       65.237     301.770     221.480
  C       64.639     299.638     220.406
  O       63.740     300.450     219.637
  C       65.491     298.732     219.485
  N       65.537     297.352     219.944
  C       64.356     296.615     219.778
  O       63.357     297.151     219.288
  N       64.324     295.312     220.212
  C       65.379     294.794     220.763
  N       65.295     293.494     221.161
  C       66.635     295.541     220.973
  C       66.643     296.802     220.554
  O       68.515     302.979     218.758
  O       70.915     302.157     218.332
  H       63.221     299.817     219.090
  H       68.982     303.653     219.286
  H       67.483     295.060     221.441
  H       67.522     297.426     220.668
  H       65.083     298.733     218.465
  H       64.027     299.081     221.126
  H       66.094     299.953     221.967
  H       66.438     301.327     219.246
  H       64.418     293.009     221.008
  H       68.137     302.091     220.695
  H       66.066     292.994     221.581
  H       68.361     300.502     221.464
  P       64.705     301.959     222.981
  C       62.227     302.620     223.046
  O       63.156     301.560     222.919
  O       64.637     303.553     223.120
  O       65.510     301.334     224.072
  H       64.415     303.789     224.038
  H       61.227     302.238     222.828
  H       62.459     303.420     222.335
  H       62.245     303.011     224.066
  H       69.073     299.834     215.524
  H       69.699     299.295     217.064
  H       70.563     300.504     216.144

 3  4  5  6  7  8  9  10  11  12  13  21  23  27  28  29  30  32 0
 6-311+G(2d,p)
 ****
 34  35 0
 6-311+G(2d,p)
 ****
 1  2  14  15  16  17  18  19  20  22  24  25  26 0
 3-21G
 ****
 31  33  36  37  38  39  40  41  42  43  44  45  46 0
 3-21G
 ****


