%nproc=1
%NoSave
%Mem=1900MB
#P OB98/GEN NMR

erre ene a

0 1
  C      474.685    1048.042     546.264
  O      475.144    1047.838     547.593
  H      474.297    1049.058     546.178
  H      473.885    1047.336     546.040
  H      475.509    1047.912     545.551
  P      475.931    1046.470     547.883
  C      474.758    1045.633     550.079
  O      475.875    1046.274     549.478
  C      474.163    1046.516     551.175
  O      474.984    1046.417     552.370
  C      474.102    1048.012     550.799
  O      472.897    1048.561     551.350
  C      475.312    1048.616     551.492
  O      475.151    1050.008     551.727
  C      475.423    1047.729     552.748
  N      476.770    1047.723     553.317
  C      477.013    1048.587     554.383
  O      476.116    1049.323     554.793
  N      478.277    1048.626     554.922
  C      479.223    1047.917     554.405
  N      480.454    1048.007     554.985
  C      479.019    1047.024     553.247
  C      477.773    1046.953     552.762
  O      477.441    1046.900     547.613
  O      475.456    1045.303     547.073
  H      475.906    1050.310     552.290
  H      477.672    1047.782     547.948
  H      479.846    1046.448     552.833
  H      477.541    1046.346     551.917
  H      474.718    1048.099     553.535
  H      476.197    1048.469     550.864
  H      474.117    1048.188     549.726
  H      473.168    1046.136     551.450
  H      480.556    1048.646     555.761
  H      475.061    1044.679     550.520
  H      481.271    1047.538     554.630
  H      474.016    1045.444     549.303
  P      471.533    1048.427     550.540
  C      471.284    1050.982     550.236
  O      470.683    1049.784     550.704
  O      470.760    1047.164     550.765
  O      472.020    1048.530     549.000
  H      471.476    1047.891     548.474
  H      470.619    1051.804     550.403
  H      471.486    1050.894     549.189
  H      472.200    1051.151     550.763

 6  7  8  9  10  11  12  13  14  15  16  26  30  31  32  33  35 0
 6-311+G(2d,p)
 ****
 37  38 0
 6-311+G(2d,p)
 ****
 1  2  3  4  5  17  18  19  20  21  22  23  24  25 0
 3-21G
 ****
 27  28  29  34  36  39  40  41  42  43  44  45  46 0
 3-21G
 ****


