%nproc=1
%NoSave
%Mem=1900MB
#P OB98/GEN NMR

erre ene a

0 1
  C      -44.723     532.609       9.036
  O      -45.187     532.007      10.241
  P      -46.244     532.810      11.139
  C      -44.755     534.415      12.515
  O      -45.665     534.277      11.423
  C      -44.312     535.878      12.666
  O      -45.452     536.675      13.088
  C      -43.221     536.111      13.722
  O      -41.860     536.020      13.319
  C      -43.468     537.579      14.078
  O      -42.824     538.434      13.120
  C      -44.979     537.731      13.956
  N      -48.049     540.255      17.183
  C      -47.544     540.585      15.973
  N      -46.734     539.856      15.183
  C      -46.460     538.668      15.742
  C      -46.912     538.190      16.959
  C      -47.744     539.041      17.701
  N      -48.251     538.714      18.941
  N      -46.418     536.919      17.205
  C      -45.675     536.652      16.151
  N      -45.671     537.657      15.234
  O      -46.769     532.086      12.339
  O      -47.430     533.107      10.092
  H      -41.862     538.311      13.243
  H      -48.284     533.033      10.554
  H      -47.821     541.563      15.596
  H      -45.107     535.736      16.020
  H      -45.269     538.683      13.492
  H      -43.058     537.843      15.059
  H      -43.391     535.485      14.601
  H      -43.974     536.259      11.687
  H      -43.885     533.781      12.340
  H      -48.805     539.406      19.425
  H      -47.990     537.837      19.364
  H      -45.255     534.031      13.406
  P      -40.941     534.781      13.762
  C      -39.839     536.190      15.676
  O      -40.574     535.041      15.301
  O      -39.763     534.519      12.878
  O      -41.992     533.586      13.841
  H      -42.644     533.660      14.562
  H      -39.884     536.300      16.764
  H      -40.260     537.092      15.214
  H      -38.799     536.070      15.373
  H      -44.028     531.953       8.554
  H      -44.240     533.536       9.264
  H      -45.553     532.790       8.385

 3  4  5  6  7  8  9  10  11  12  22  25  29  30  31  32 0
 6-311+G(2d,p)
 ****
 33  36  37 0
 6-311+G(2d,p)
 ****
 1  2  13  14  15  16  17  18  19  20  21  23  24  26 0
 3-21G
 ****
 27  28  34  35  38  39  40  41  42  43  44  45  46  47  48 0
 3-21G
 ****


