%nproc=1
%NoSave
%Mem=1900MB
#P OB98/GEN NMR

erre ene a

0 1
  C     -408.981    -252.724     648.245
  O     -409.760    -251.810     647.489
  P     -410.040    -250.322     648.024
  C     -411.122    -249.411     650.188
  O     -410.992    -250.515     649.297
  C     -412.585    -248.997     650.289
  O     -413.317    -249.975     651.049
  C     -412.823    -247.665     650.988
  O     -412.498    -246.575     650.135
  C     -414.288    -247.789     651.369
  O     -415.124    -247.496     650.235
  C     -414.398    -249.287     651.725
  N     -414.360    -249.527     653.162
  C     -415.586    -249.694     653.803
  O     -416.644    -249.649     653.176
  N     -415.597    -249.944     655.160
  C     -414.484    -250.005     655.812
  N     -414.552    -250.328     657.135
  C     -413.165    -249.779     655.187
  C     -413.177    -249.550     653.880
  O     -410.556    -249.377     646.999
  O     -408.663    -249.864     648.690
  H     -415.982    -247.198     650.586
  H     -408.038    -249.437     648.051
  H     -412.263    -249.824     655.785
  H     -412.250    -249.399     653.343
  H     -415.323    -249.707     651.326
  H     -414.591    -247.122     652.182
  H     -412.209    -247.598     651.896
  H     -413.009    -248.971     649.271
  H     -415.452    -250.639     657.480
  H     -410.537    -248.574     649.791
  H     -413.739    -250.666     657.641
  H     -410.724    -249.689     651.167
  P     -412.260    -245.140     650.820
  C     -413.772    -243.732     652.383
  O     -413.710    -244.636     651.289
  O     -411.893    -244.200     649.574
  O     -411.202    -245.132     651.869
  H     -410.927    -244.058     649.533
  H     -414.777    -243.308     652.417
  H     -413.054    -242.918     652.248
  H     -413.575    -244.263     653.315
  H     -408.913    -253.654     647.720
  H     -409.443    -252.885     649.197
  H     -408.000    -252.323     648.389

 3  4  5  6  7  8  9  10  11  12  13  23  27  28  29  30  32 0
 6-311+G(2d,p)
 ****
 34  35 0
 6-311+G(2d,p)
 ****
 1  2  14  15  16  17  18  19  20  21  22  24  25  26 0
 3-21G
 ****
 31  33  36  37  38  39  40  41  42  43  44  45  46 0
 3-21G
 ****


