%nproc=1
%NoSave
%Mem=1900MB
#P OB98/GEN NMR

erre ene a

0 1
  C      -30.232      95.418      26.947
  O      -30.573      94.946      25.659
  H      -29.144      95.454      27.031
  H      -30.624      94.742      27.712
  H      -30.633      96.424      27.100
  P      -32.138      94.838      25.323
  C      -33.999      93.158      26.010
  O      -32.609      93.388      25.819
  C      -34.321      91.694      25.727
  O      -33.972      91.372      24.360
  C      -33.536      90.713      26.588
  O      -34.069      90.593      27.894
  C      -33.654      89.440      25.764
  O      -34.892      88.765      26.020
  C      -33.624      89.968      24.326
  N      -30.862      86.970      21.253
  C      -32.162      86.936      21.617
  N      -32.827      87.782      22.433
  C      -32.012      88.760      22.864
  C      -30.669      88.927      22.576
  C      -30.086      87.974      21.724
  N      -28.757      87.993      21.373
  N      -30.163      90.027      23.238
  C      -31.185      90.521      23.908
  N      -32.323      89.791      23.710
  O      -32.158      94.721      23.727
  O      -32.969      95.978      25.807
  H      -35.601      89.391      25.775
  H      -32.370      95.591      23.339
  H      -32.744      86.115      21.207
  H      -31.148      91.393      24.550
  H      -34.358      89.467      23.684
  H      -32.844      88.750      25.997
  H      -32.480      91.009      26.628
  H      -35.401      91.542      25.848
  H      -34.570      93.791      25.322
  H      -34.264      93.420      27.039
  H      -28.391      87.240      20.814
  H      -28.145      88.671      21.810
  P      -33.060      90.208      29.078
  C      -31.500      88.185      29.603
  O      -32.536      88.721      28.792
  O      -34.012      90.038      30.353
  O      -31.979      91.206      29.322
  H      -33.551      90.349      31.155
  H      -31.272      87.191      29.280
  H      -31.821      88.163      30.624
  H      -30.627      88.797      29.517

 6  7  8  9  10  11  12  13  14  15  25  28  32  33  34  35 0
 6-311+G(2d,p)
 ****
 36  37  40 0
 6-311+G(2d,p)
 ****
 1  2  3  4  5  16  17  18  19  20  21  22  23  24 0
 3-21G
 ****
 26  27  29  30  31  38  39 41  42  43  44  45  46  47  48 0
 3-21G
 ****


