%nproc=1
%NoSave
%Mem=1900MB
#P OB98/GEN NMR

erre ene a

0 1
  C      -67.935     -19.389     -55.331
  O      -67.310     -18.849     -54.189
  P      -67.328     -19.545     -52.755
  C      -66.040     -21.551     -51.682
  O      -66.560     -20.949     -52.860
  C      -66.227     -23.075     -51.713
  O      -67.625     -23.372     -51.471
  C      -65.876     -23.660     -53.092
  O      -65.148     -24.880     -53.037
  C      -67.223     -23.681     -53.803
  O      -67.269     -24.572     -54.906
  C      -68.176     -23.992     -52.653
  N      -72.971     -25.265     -53.751
  C      -71.909     -26.082     -53.417
  N      -72.109     -27.409     -53.574
  N      -70.753     -25.631     -53.005
  C      -70.666     -24.281     -53.007
  C      -71.649     -23.370     -53.315
  C      -72.931     -23.881     -53.738
  O      -73.864     -23.192     -54.152
  N      -71.182     -22.082     -53.273
  C      -69.905     -22.213     -52.973
  N      -69.538     -23.532     -52.835
  O      -68.620     -19.504     -52.006
  O      -66.263     -18.642     -51.942
  H      -67.114     -25.473     -54.565
  H      -66.572     -18.599     -51.015
  H      -73.814     -25.670     -54.140
  H      -69.199     -21.396     -52.874
  H      -68.243     -25.066     -52.468
  H      -67.403     -22.676     -54.199
  H      -72.935     -27.774     -54.027
  H      -65.201     -22.987     -53.632
  H      -71.284     -28.002     -53.578
  H      -65.644     -23.526     -50.904
  H      -66.598     -21.120     -50.843
  H      -64.986     -21.294     -51.552
  P      -64.262     -25.568     -54.173
  C      -62.006     -25.091     -55.295
  O      -63.126     -24.537     -54.628
  O      -65.212     -25.640     -55.457
  O      -63.757     -26.931     -53.828
  H      -65.070     -26.487     -55.921
  H      -61.202     -24.349     -55.303
  H      -62.275     -25.333     -56.326
  H      -61.655     -25.992     -54.783
  H      -67.780     -18.737     -56.165
  H      -68.984     -19.491     -55.149
  H      -67.515     -20.349     -55.547

 3  4  5  6  7  8  9  10  11  12  23  26  30  31 0
 6-311+G(2d,p)
 ****
 33  35  36  37  38 0
 6-311+G(2d,p)
 ****
 1  2  13  14  15  16  17  18  19  20  21  22  24  25 0
 3-21G
 ****
 27  28  29  32  34  39  40  41  42  43  44  45  46  47  48  49 0
 3-21G
 ****


