%nproc=1
%NoSave
%Mem=1900MB
#P OB98/GEN NMR

erre ene a

0 1
  C     -194.688     166.119      58.697
  O     -196.037     165.753      58.905
  H     -194.116     165.217      58.460
  H     -194.271     166.568      59.601
  H     -194.604     166.815      57.859
  P     -197.094     166.905      59.274
  C     -197.345     168.456      61.335
  O     -196.737     167.294      60.793
  C     -197.786     168.201      62.772
  O     -198.682     167.070      62.855
  C     -196.656     167.861      63.740
  O     -195.850     168.974      64.092
  C     -197.463     167.340      64.913
  O     -198.062     168.442      65.618
  C     -198.533     166.493      64.183
  N     -198.167     165.080      64.091
  C     -198.631     164.244      65.112
  O     -199.305     164.695      66.036
  N     -198.294     162.910      65.081
  C     -197.539     162.458      64.129
  N     -197.228     161.132      64.152
  C     -197.009     163.310      63.045
  C     -197.361     164.590      63.083
  O     -198.531     166.583      59.014
  O     -196.574     168.194      58.482
  H     -197.344     169.072      65.819
  H     -197.201     168.936      58.667
  H     -196.361     162.889      62.290
  H     -197.007     165.281      62.324
  H     -199.506     166.576      64.683
  H     -196.864     166.779      65.635
  H     -196.039     167.041      63.350
  H     -198.349     169.084      63.106
  H     -197.604     160.575      64.908
  H     -198.199     168.720      60.702
  H     -196.587     160.709      63.494
  H     -196.634     169.287      61.334
  P     -194.270     168.711      64.242
  C     -192.823     167.324      65.917
  O     -194.075     167.923      65.622
  O     -193.689     170.169      64.536
  O     -193.620     168.056      63.062
  H     -193.326     170.567      63.720
  H     -192.873     166.844      66.872
  H     -192.063     168.077      65.935
  H     -192.589     166.599      65.166

 6  7  8  9  10  11  12  13  14  15  16  26  30  31  32  33  35 0
 6-311+G(2d,p)
 ****
 37  38 0
 6-311+G(2d,p)
 ****
 1  2  3  4  5  17  18  19  20  21  22  23  24  25 0
 3-21G
 ****
 27  28  29  34  36  39  40  41  42  43  44  45  46 0
 3-21G
 ****


