%nproc=1
%NoSave
%Mem=1900MB
#P OB98/GEN NMR

erre ene a

0 1
  C     -155.478    -438.149     520.833
  O     -154.962    -439.451     520.623
  H     -154.839    -437.433     520.313
  H     -155.471    -437.910     521.900
  H     -156.496    -438.066     520.438
  P     -155.801    -440.711     521.157
  C     -154.179    -442.391     520.067
  O     -154.779    -441.934     521.271
  C     -152.749    -442.857     520.345
  O     -152.723    -443.745     521.482
  C     -152.127    -443.638     519.192
  O     -151.721    -442.777     518.152
  C     -150.992    -444.345     519.915
  O     -149.861    -443.469     520.080
  C     -151.638    -444.678     521.275
  N     -152.106    -446.064     521.359
  C     -151.204    -446.984     521.884
  O     -150.063    -446.695     522.237
  N     -151.662    -448.274     521.969
  C     -152.848    -448.739     521.483
  O     -153.170    -449.923     521.504
  C     -153.747    -447.724     520.914
  C     -153.342    -446.451     520.880
  O     -157.066    -441.007     520.417
  O     -156.095    -440.343     522.690
  H     -149.167    -444.001     520.524
  H     -157.025    -440.071     522.785
  H     -151.023    -448.964     522.333
  H     -154.700    -448.051     520.531
  H     -153.985    -445.687     520.465
  H     -150.922    -444.512     522.087
  H     -150.637    -445.221     519.366
  H     -152.833    -444.391     518.824
  H     -152.141    -441.971     520.589
  H     -154.162    -441.566     519.348
  H     -154.782    -443.210     519.653
  P     -152.089    -443.135     516.627
  C     -151.714    -440.675     515.990
  O     -151.408    -442.028     515.688
  O     -153.538    -443.387     516.367
  O     -151.222    -444.451     516.329
  H     -151.821    -445.184     516.102
  H     -151.206    -440.032     515.302
  H     -151.397    -440.452     516.987
  H     -152.770    -440.521     515.909

 6  7  8  9  10  11  12  13  14  15  16  26  31  32  33  34  35 0
 6-311+G(2d,p)
 ****
 36  37 0
 6-311+G(2d,p)
 ****
 1  2  3  4  5  17  18  19  20  21  22  23  24  25 0
 3-21G
 ****
 27  28  29  30  38  39  40  41  42  43  44  45 0
 3-21G
 ****


