%nproc=1
%NoSave
%Mem=1900MB
#P OB98/GEN NMR

erre ene a

0 1
  C     -224.981     -78.007      23.073
  O     -223.857     -78.200      22.240
  H     -225.621     -78.892      23.013
  H     -225.552     -77.137      22.738
  H     -224.665     -77.869      24.111
  P     -222.787     -77.007      22.180
  C     -220.763     -78.257      23.213
  O     -221.345     -77.706      22.041
  C     -219.316     -78.674      22.946
  O     -219.315     -79.938      22.226
  C     -218.525     -77.662      22.105
  O     -217.179     -77.611      22.589
  C     -218.526     -78.290      20.721
  O     -217.447     -77.825      19.918
  C     -218.455     -79.770      21.083
  N     -216.994     -81.617      16.636
  C     -216.321     -80.815      17.539
  N     -215.068     -80.440      17.207
  N     -216.838     -80.410      18.669
  C     -218.090     -80.880      18.886
  C     -218.865     -81.669      18.070
  C     -218.291     -82.092      16.810
  O     -218.845     -82.783      15.961
  N     -220.098     -81.898      18.632
  C     -220.064     -81.251      19.783
  N     -218.866     -80.621      19.982
  O     -222.776     -76.439      23.677
  O     -223.067     -75.941      21.175
  H     -216.647     -78.337      20.164
  H     -222.566     -75.486      23.686
  H     -216.555     -81.891      15.775
  H     -220.874     -81.205      20.499
  H     -217.441     -80.082      21.366
  H     -219.465     -78.058      20.204
  H     -214.594     -80.740      16.369
  H     -218.954     -76.658      22.108
  H     -214.551     -79.863      17.861
  H     -218.821     -78.859      23.907
  H     -221.342     -79.133      23.522
  H     -220.790     -77.510      24.013
  P     -216.741     -76.317      23.432
  C     -216.533     -77.442      25.763
  O     -215.866     -76.794      24.690
  O     -218.119     -75.841      24.098
  O     -216.139     -75.232      22.603
  H     -218.426     -75.024      23.668
  H     -215.823     -77.698      26.521
  H     -217.007     -78.331      25.403
  H     -217.271     -76.785      26.173

 6  7  8  9  10  11  12  13  14  15  26  29  33  34 0
 6-311+G(2d,p)
 ****
 36  38  39  40  41 0
 6-311+G(2d,p)
 ****
 1  2  3  4  5  16  17  18  19  20  21  22  23  24  25 0
 3-21G
 ****
 27  28  30  31  32  35  37  42  43  44  45  46  47 0
 3-21G
 ****
 48  49 0
 3-21G
 ****


