%nproc=1
%NoSave
%Mem=1900MB
#P OB98/GEN NMR

erre ene a

0 1
  C     -899.190     516.904    -110.861
  O     -899.440     516.607    -109.500
  P     -898.440     517.229    -108.400
  C     -897.560     514.950    -107.405
  O     -897.300     516.112    -108.186
  C     -896.370     513.973    -107.504
  O     -896.270     513.493    -108.858
  C     -895.010     514.586    -107.184
  O     -894.820     514.749    -105.778
  C     -894.080     513.579    -107.851
  O     -893.890     512.418    -107.000
  C     -894.880     513.203    -109.110
  N     -894.410     513.892    -110.316
  C     -893.170     513.485    -110.811
  O     -892.480     512.587    -110.296
  N     -892.740     514.147    -111.939
  C     -893.370     515.197    -112.543
  O     -892.900     515.789    -113.518
  C     -894.640     515.610    -111.953
  C     -895.100     514.943    -110.887
  O     -899.340     517.140    -107.092
  O     -897.950     518.595    -108.767
  H     -900.000     516.436    -107.151
  H     -893.500     512.766    -106.172
  H     -891.850     513.854    -112.331
  H     -895.170     516.442    -112.402
  H     -896.040     515.237    -110.424
  H     -894.800     512.115    -109.301
  H     -893.080     514.001    -108.053
  H     -894.920     515.569    -107.676
  H     -896.580     513.117    -106.845
  H     -898.460     514.460    -107.764
  H     -897.710     515.256    -106.359
  P     -893.420     515.382    -105.323
  C     -892.660     513.235    -104.044
  O     -892.420     514.154    -105.082
  O     -893.780     515.886    -103.848
  O     -892.920     516.457    -106.238
  H     -894.330     515.247    -103.346
  H     -892.130     512.306    -104.267
  H     -893.720     512.998    -103.953
  H     -892.300     513.646    -103.092
  H     -899.928     516.427    -111.472
  H     -898.218     516.546    -111.131
  H     -899.234     517.963    -111.009

 3  4  5  6  7  8  9  10  11  12  13  24  28  29  30  31  32 0
 6-311+G(2d,p)
 ****
 33  34 0
 6-311+G(2d,p)
 ****
 1  2  14  15  16  17  18  19  20  21  22  23  25  26  27 0
 3-21G
 ****
 35  36  37  38  39  40  41  42  43  44  45 0
 3-21G
 ****


