%nproc=1
%NoSave
%Mem=1900MB
#P OB98/GEN NMR

erre ene a

0 1
  C     -441.619     -49.102    -133.762
  O     -441.755     -48.402    -132.542
  H     -442.583     -49.136    -134.274
  H     -440.904     -48.570    -134.396
  H     -441.251     -50.116    -133.589
  P     -442.519     -49.152    -131.346
  C     -440.865     -47.815    -129.853
  O     -442.184     -48.324    -130.005
  C     -440.519     -47.665    -128.372
  O     -441.062     -46.399    -127.897
  C     -441.081     -48.783    -127.476
  O     -440.107     -49.090    -126.472
  C     -442.282     -48.127    -126.810
  O     -442.613     -48.722    -125.559
  C     -441.802     -46.680    -126.694
  N     -445.868     -45.658    -123.810
  C     -444.777     -46.424    -123.597
  N     -443.707     -46.600    -124.398
  C     -443.810     -45.831    -125.498
  C     -444.855     -44.996    -125.857
  C     -445.936     -44.935    -124.958
  N     -447.085     -44.213    -125.203
  N     -444.614     -44.420    -127.089
  C     -443.455     -44.917    -127.477
  N     -442.933     -45.777    -126.550
  O     -441.662     -50.496    -131.183
  O     -443.966     -49.438    -131.582
  H     -443.505     -48.426    -125.296
  H     -442.006     -51.179    -131.787
  H     -444.765     -46.975    -122.654
  H     -442.973     -44.714    -128.426
  H     -441.141     -46.521    -125.834
  H     -443.153     -48.202    -127.471
  H     -441.355     -49.694    -128.020
  H     -439.428     -47.605    -128.273
  H     -440.805     -46.830    -130.333
  H     -447.849     -44.317    -124.557
  H     -447.196     -43.761    -126.096
  H     -440.158     -48.493    -130.341
  P     -439.602     -50.612    -126.379
  C     -437.923     -50.829    -124.396
  O     -439.269     -50.944    -124.847
  O     -438.155     -50.559    -127.067
  O     -440.504     -51.593    -127.056
  H     -437.971     -51.401    -127.525
  H     -437.872     -51.084    -123.358
  H     -437.585     -49.823    -124.534
  H     -437.301     -51.494    -124.958

 6  7  8  9  10  11  12  13  14  15  25  28  32  33  34  35 0
 6-311+G(2d,p)
 ****
 36  39  40 0
 6-311+G(2d,p)
 ****
 1  2  3  4  5  16  17  18  19  20  21  22  23  24 0
 3-21G
 ****
 26  27  29  30  31  37  38  41  42  43  44  45  46  47 0
 3-21G
 ****
 48 0
 3-21G
 ****


