%nproc=1
%NoSave
%Mem=1900MB
#P OB98/GEN NMR

erre ene a

0 1
  C      370.055    -985.647    -394.701
  O      369.363    -985.185    -395.848
  H      369.416    -986.360    -394.167
  H      370.282    -984.820    -394.024
  H      370.976    -986.151    -394.997
  P      370.018    -984.010    -396.711
  C      370.367    -985.373    -398.884
  O      369.642    -984.337    -398.235
  C      369.613    -985.857    -400.111
  O      368.389    -986.526    -399.725
  C      369.185    -984.727    -401.046
  O      370.282    -984.254    -401.789
  C      368.089    -985.404    -401.846
  O      368.632    -986.228    -402.876
  C      367.406    -986.268    -400.749
  N      366.208    -985.630    -400.197
  C      365.075    -986.425    -400.100
  O      365.101    -987.606    -400.455
  N      363.919    -985.862    -399.614
  C      363.907    -984.623    -399.237
  N      362.729    -984.121    -398.770
  C      365.090    -983.741    -399.316
  C      366.196    -984.306    -399.804
  O      371.473    -983.734    -396.473
  O      369.102    -982.736    -396.376
  H      367.861    -986.600    -403.345
  H      369.455    -982.262    -395.597
  H      365.038    -982.716    -398.991
  H      367.119    -983.731    -399.895
  H      367.113    -987.244    -401.159
  H      367.426    -984.671    -402.305
  H      368.737    -983.908    -400.461
  H      370.240    -986.587    -400.648
  H      361.944    -984.757    -398.743
  H      370.475    -986.190    -398.157
  H      362.633    -983.202    -398.373
  H      371.369    -985.033    -399.168
  P      370.173    -982.893    -402.638
  C      370.659    -981.344    -400.620
  O      371.126    -981.844    -401.884
  O      368.790    -982.437    -402.910
  O      371.020    -983.227    -403.974
  H      370.500    -983.842    -404.573
  H      371.377    -980.658    -400.220
  H      370.528    -982.160    -399.940
  H      369.724    -980.842    -400.758

 6  7  8  9  10  11  12  13  14  15  16  26  30  31  32  33  35 0
 6-311+G(2d,p)
 ****
 37  38 0
 6-311+G(2d,p)
 ****
 1  2  3  4  5  17  18  19  20  21  22  23  24  25 0
 3-21G
 ****
 27  28  29  34  36  39  40  41  42  43  44  45  46 0
 3-21G
 ****


