%nproc=1
%NoSave
%Mem=1900MB
#P OB98/GEN NMR

erre ene a

0 1
  C      295.350     237.983     -18.844
  O      294.796     236.684     -18.836
  H      295.886     238.140     -17.905
  H      294.552     238.725     -18.919
  H      296.053     238.108     -19.671
  P      294.207     236.085     -20.200
  C      295.229     234.670     -22.098
  O      295.471     235.629     -21.078
  C      296.173     233.473     -21.954
  O      297.539     233.920     -22.190
  C      296.140     232.814     -20.567
  O      296.424     231.422     -20.746
  C      297.296     233.504     -19.871
  O      297.711     232.791     -18.727
  C      298.307     233.592     -21.017
  N      299.361     234.570     -20.757
  C      300.398     234.161     -19.929
  O      300.439     233.050     -19.397
  N      301.376     235.085     -19.686
  C      301.382     236.374     -20.133
  O      302.269     237.171     -19.859
  C      300.237     236.766     -20.971
  C      299.296     235.860     -21.243
  O      293.229     236.952     -20.919
  O      293.560     234.686     -19.770
  H      296.941     232.592     -18.153
  H      292.805     234.473     -20.350
  H      302.141     234.801     -19.095
  H      300.207     237.784     -21.334
  H      298.440     236.117     -21.858
  H      298.784     232.618     -21.188
  H      297.005     234.507     -19.541
  H      295.187     232.948     -20.051
  H      295.938     232.745     -22.741
  H      295.393     235.157     -23.064
  H      294.190     234.332     -22.042
  P      295.267     230.341     -21.002
  C      293.583     229.729     -22.853
  O      294.709     230.525     -22.496
  O      294.205     230.318     -19.952
  O      296.031     228.934     -21.064
  H      295.430     228.222     -20.778
  H      293.305     229.938     -23.865
  H      292.764     229.958     -22.203
  H      293.834     228.693     -22.759

 6  7  8  9  10  11  12  13  14  15  16  26  31  32  33  34  35 0
 6-311+G(2d,p)
 ****
 36  37 0
 6-311+G(2d,p)
 ****
 1  2  3  4  5  17  18  19  20  21  22  23  24  25 0
 3-21G
 ****
 27  28  29  30  38  39  40  41  42  43  44  45 0
 3-21G
 ****


