%nproc=1
%NoSave
%Mem=1900MB
#P OB98/GEN NMR

erre ene a

0 1
  C      845.629    -597.991    -416.050
  O      844.320    -597.591    -416.425
  H      845.593    -599.037    -415.738
  H      845.976    -597.382    -415.212
  H      846.322    -597.906    -416.890
  P      844.125    -596.146    -417.089
  C      842.757    -595.526    -414.988
  O      843.782    -595.129    -415.890
  C      842.460    -594.386    -414.003
  O      843.601    -594.201    -413.108
  C      842.226    -593.030    -414.673
  O      840.941    -592.970    -415.279
  C      842.448    -592.101    -413.501
  O      841.282    -592.007    -412.697
  C      843.585    -592.806    -412.731
  N      844.891    -592.191    -412.977
  C      845.403    -591.369    -411.964
  O      844.813    -591.184    -410.879
  N      846.595    -590.739    -412.227
  C      847.210    -590.727    -413.467
  O      848.135    -589.960    -413.724
  C      846.685    -591.642    -414.459
  C      845.552    -592.317    -414.192
  O      843.180    -596.094    -418.252
  O      845.613    -595.714    -417.511
  H      845.723    -595.844    -418.473
  H      841.577    -591.637    -411.829
  H      846.940    -590.113    -411.512
  H      847.188    -591.712    -415.408
  H      845.109    -592.966    -414.939
  H      843.392    -592.777    -411.644
  H      842.719    -591.091    -413.839
  H      842.998    -592.859    -415.433
  H      841.592    -594.678    -413.379
  H      843.092    -596.407    -414.431
  H      841.852    -595.783    -415.548
  P      840.527    -591.684    -416.140
  C      838.737    -591.042    -414.407
  O      839.875    -590.605    -415.146
  O      839.719    -591.991    -417.363
  O      841.932    -591.009    -416.532
  H      841.941    -590.849    -417.504
  H      838.390    -590.245    -413.783
  H      839.007    -591.880    -413.799
  H      837.960    -591.328    -415.085

 6  7  8  9  10  11  12  13  14  15  16  27  31  32  33  34  35 0
 6-311+G(2d,p)
 ****
 36  37 0
 6-311+G(2d,p)
 ****
 1  2  3  4  5  17  18  19  20  21  22  23  24  25 0
 3-21G
 ****
 26  28  29  30  38  39  40  41  42  43  44  45 0
 3-21G
 ****


