%nproc=1
%NoSave
%Mem=1900MB
#P OB98/GEN NMR

erre ene a

0 1
  C      133.209     191.565     135.597
  O      134.357     192.376     135.437
  H      133.212     191.156     136.610
  H      133.228     190.738     134.880
  H      132.304     192.164     135.451
  P      134.577     193.033     133.989
  C      136.413     191.406     133.174
  O      135.043     191.806     133.064
  C      136.547     189.889     132.996
  O      136.023     189.536     131.680
  C      137.994     189.392     133.067
  O      138.017     188.103     133.690
  C      138.380     189.238     131.607
  O      139.457     188.313     131.416
  C      137.057     188.801     130.983
  N      138.596     187.106     126.436
  C      138.621     186.544     127.668
  N      138.164     187.064     128.827
  C      137.582     188.259     128.623
  C      137.467     188.948     127.429
  C      138.015     188.323     126.292
  N      138.016     188.890     125.039
  N      136.839     190.165     127.631
  C      136.567     190.204     128.922
  N      137.008     189.075     129.562
  O      135.464     194.234     133.949
  O      133.070     193.276     133.501
  H      139.764     188.372     130.493
  H      132.514     192.493     133.660
  H      139.074     185.557     127.733
  H      136.063     191.012     129.450
  H      136.860     187.727     131.116
  H      138.702     190.201     131.199
  H      138.663     190.067     133.605
  H      135.909     189.394     133.733
  H      136.808     191.699     134.151
  H      138.433     188.375     124.282
  H      137.594     189.797     124.902
  H      136.984     191.935     132.395
  P      138.459     187.996     135.230
  C      140.938     187.472     134.744
  O      140.014     188.371     135.349
  O      138.064     186.742     135.934
  O      137.744     189.272     135.893
  H      137.368     189.012     136.767
  H      141.935     187.832     134.892
  H      140.735     187.404     133.696
  H      140.838     186.504     135.190

 6  7  8  9  10  11  12  13  14  15  25  28  32  33  34  35 0
 6-311+G(2d,p)
 ****
 36  39  40 0
 6-311+G(2d,p)
 ****
 1  2  3  4  5  16  17  18  19  20  21  22  23  24 0
 3-21G
 ****
 26  27  29  30  31  37  38  41  42  43  44  45  46  47 0
 3-21G
 ****
 48 0
 3-21G
 ****


