%nproc=1
%NoSave
%Mem=1900MB
#P OB98/GEN NMR

erre ene a

0 1
  C       -9.778     282.635     -62.726
  O       -8.797     281.767     -63.279
  P       -7.481     282.435     -63.901
  C       -7.058     284.192     -65.783
  O       -7.924     283.215     -65.231
  C       -7.358     284.365     -67.275
  O       -7.190     283.111     -67.967
  C       -8.782     284.815     -67.562
  O       -8.943     286.201     -67.344
  C       -8.944     284.404     -69.023
  O       -8.395     285.405     -69.900
  C       -8.110     283.109     -69.085
  N       -8.943     281.907     -69.100
  C       -9.373     281.479     -70.354
  O       -9.092     282.079     -71.398
  N      -10.159     280.364     -70.372
  C      -10.607     279.676     -69.272
  O      -11.362     278.714     -69.346
  C      -10.144     280.197     -67.973
  C       -9.356     281.266     -67.942
  O       -6.644     281.186     -64.452
  O       -6.689     283.259     -62.943
  H       -8.444     285.037     -70.804
  H       -5.687     281.353     -64.336
  H      -10.462     280.021     -71.269
  H      -10.475     279.673     -67.082
  H       -9.013     281.670     -67.000
  H       -7.483     283.104     -69.990
  H       -9.994     284.277     -69.302
  H       -9.490     284.232     -66.950
  H       -6.636     285.086     -67.693
  H       -6.021     283.874     -65.646
  H       -7.203     285.139     -65.251
  P      -10.290     286.667     -66.585
  C      -12.805     286.287     -67.183
  O      -11.468     286.403     -67.634
  O      -10.085     288.255     -66.573
  O      -10.444     286.045     -65.237
  H       -9.605     288.574     -67.356
  H      -13.000     286.958     -66.342
  H      -13.003     285.253     -66.886
  H      -13.475     286.547     -68.007
  H      -10.596     282.056     -62.350
  H      -10.132     283.302     -63.484
  H       -9.345     283.200     -61.927

 3  4  5  6  7  8  9  10  11  12  13  23  28  29  30  31  32 0
 6-311+G(2d,p)
 ****
 33  34 0
 6-311+G(2d,p)
 ****
 1  2  14  15  16  17  18  19  20  21  22  24  25  26 0
 3-21G
 ****
 27  35  36  37  38  39  40  41  42  43  44  45 0
 3-21G
 ****


