%nproc=1
%NoSave
%Mem=1900MB
#P OB98/GEN NMR

erre ene a

0 1
  C     1880.718    -110.618    1273.877
  O     1881.976    -109.974    1273.967
  H     1879.989    -109.927    1273.419
  H     1880.359    -110.863    1274.888
  H     1880.793    -111.526    1273.265
  P     1883.161    -110.781    1274.708
  C     1884.502    -111.101    1272.505
  O     1883.836    -111.727    1273.607
  C     1885.996    -110.932    1272.818
  O     1886.581    -112.277    1273.054
  C     1886.806    -110.345    1271.695
  O     1886.689    -108.923    1271.622
  C     1888.223    -110.783    1272.098
  O     1888.794    -109.880    1273.065
  C     1887.991    -112.186    1272.718
  N     1888.411    -113.254    1271.811
  C     1889.734    -113.242    1271.438
  O     1890.521    -112.360    1271.831
  N     1890.096    -114.206    1270.542
  C     1889.282    -115.164    1270.005
  O     1889.685    -115.966    1269.162
  C     1887.895    -115.127    1270.431
  C     1887.473    -114.175    1271.294
  O     1882.371    -111.813    1275.643
  O     1884.106    -109.934    1275.477
  H     1882.409    -111.503    1276.581
  H     1888.146    -109.829    1273.802
  H     1891.063    -114.218    1270.264
  H     1887.215    -115.833    1270.008
  H     1886.455    -114.148    1271.620
  H     1888.552    -112.287    1273.654
  H     1888.870    -110.808    1271.236
  H     1886.541    -110.806    1270.727
  H     1886.085    -110.367    1273.750
  H     1884.100    -110.094    1272.312
  H     1884.372    -111.704    1271.611
  P     1886.230    -108.274    1270.245
  C     1883.665    -108.100    1270.946
  O     1884.649    -108.659    1270.064
  O     1886.985    -109.239    1269.192
  O     1886.549    -106.810    1270.138
  H     1887.140    -110.135    1269.560
  H     1882.696    -108.464    1270.676
  H     1883.680    -107.033    1270.867
  H     1883.885    -108.386    1271.953

 6  7  8  9  10  11  12  13  14  15  16  27  31  32  33  34  35 0
 6-311+G(2d,p)
 ****
 36  37 0
 6-311+G(2d,p)
 ****
 1  2  3  4  5  17  18  19  20  21  22  23  24  25 0
 3-21G
 ****
 26  28  29  30  38  39  40  41  42  43  44  45 0
 3-21G
 ****


