%nproc=1
%NoSave
%Mem=1900MB
#P OB98/GEN NMR

erre ene a

0 1
  C      386.650     168.427      33.971
  O      386.445     169.825      34.020
  H      386.161     168.030      33.077
  H      386.199     167.963      34.852
  H      387.720     168.193      33.926
  P      387.322     170.658      35.069
  C      385.614     171.678      36.725
  O      386.414     171.885      35.577
  C      384.524     172.751      36.818
  O      385.152     174.024      37.149
  C      383.731     172.952      35.515
  O      382.367     173.198      35.838
  C      384.355     174.200      34.910
  O      383.453     174.888      34.039
  C      384.727     174.981      36.159
  N      385.889     179.887      36.261
  C      384.752     179.228      36.691
  N      383.777     179.994      37.234
  N      384.589     177.926      36.615
  C      385.669     177.293      36.090
  C      386.843     177.827      35.616
  C      386.995     179.270      35.688
  O      387.971     179.910      35.293
  N      387.673     176.855      35.131
  C      387.003     175.727      35.307
  N      385.778     175.945      35.893
  O      388.419     171.363      34.143
  O      387.958     169.852      36.153
  H      383.275     174.297      33.271
  H      389.308     171.028      34.372
  H      385.957     180.887      36.334
  H      387.352     174.742      35.027
  H      383.875     175.547      36.575
  H      385.248     173.929      34.339
  H      383.852     180.991      37.369
  H      383.799     172.089      34.843
  H      382.951     179.529      37.589
  H      383.860     172.503      37.652
  H      386.242     171.720      37.616
  H      385.146     170.685      36.669
  P      381.418     171.912      36.023
  C      379.751     172.558      34.150
  O      379.931     172.304      35.530
  O      381.271     171.790      37.614
  O      381.975     170.660      35.428
  H      381.775     171.022      37.936
  H      378.727     172.804      33.963
  H      380.016     171.686      33.589
  H      380.374     173.376      33.854

 6  7  8  9  10  11  12  13  14  15  26  29  33  34 0
 6-311+G(2d,p)
 ****
 36  38  39  40  41 0
 6-311+G(2d,p)
 ****
 1  2  3  4  5  16  17  18  19  20  21  22  23  24  25 0
 3-21G
 ****
 27  28  30  31  32  35  37  42  43  44  45  46  47 0
 3-21G
 ****
 48  49 0
 3-21G
 ****


