%nproc=1
%NoSave
%Mem=1900MB
#P OB98/GEN NMR

erre ene a

0 1
  C     -368.115     703.009    -843.979
  O     -367.012     702.146    -844.141
  H     -368.189     703.665    -844.852
  H     -367.967     703.628    -843.094
  H     -369.044     702.440    -843.883
  P     -366.743     701.074    -842.962
  C     -366.776     698.812    -844.280
  O     -367.494     699.729    -843.432
  C     -367.423     697.419    -844.156
  O     -367.369     696.955    -842.790
  C     -368.902     697.383    -844.628
  O     -369.117     696.218    -845.421
  C     -369.674     697.288    -843.329
  O     -370.949     696.679    -843.492
  C     -368.670     696.542    -842.415
  N     -368.926     696.848    -840.995
  C     -370.128     696.316    -840.450
  O     -370.905     695.655    -841.159
  N     -370.427     696.600    -839.136
  C     -369.664     697.359    -838.434
  N     -370.039     697.599    -837.154
  C     -368.431     697.959    -838.993
  C     -368.117     697.669    -840.241
  O     -367.641     701.616    -841.768
  O     -365.299     700.870    -842.602
  H     -371.355     696.608    -842.614
  H     -367.426     701.182    -840.914
  H     -367.790     698.608    -838.375
  H     -367.260     698.059    -840.737
  H     -368.779     695.446    -842.560
  H     -369.842     698.320    -842.941
  H     -369.177     698.251    -845.197
  H     -366.800     696.718    -844.750
  H     -370.883     697.168    -836.813
  H     -365.736     698.761    -843.931
  H     -369.504     698.230    -836.534
  H     -366.806     699.161    -845.307
  P     -368.679     696.342    -846.976
  C     -366.780     694.540    -846.924
  O     -367.134     695.924    -847.076
  O     -368.660     697.912    -847.207
  O     -369.581     695.636    -847.882
  H     -369.484     698.200    -847.639
  H     -365.720     694.431    -847.017
  H     -367.266     693.962    -847.682
  H     -367.091     694.196    -845.960

 6  7  8  9  10  11  12  13  14  15  16  26  30  31  32  33  35 0
 6-311+G(2d,p)
 ****
 37  38 0
 6-311+G(2d,p)
 ****
 1  2  3  4  5  17  18  19  20  21  22  23  24  25 0
 3-21G
 ****
 27  28  29  34  36  39  40  41  42  43  44  45  46 0
 3-21G
 ****


