%nproc=1
%NoSave
%Mem=1900MB
#P OB98/GEN NMR

erre ene a

0 1
  C     -114.351      12.757      44.039
  O     -115.613      12.848      44.709
  P     -115.614      13.222      46.269
  C     -114.904      12.069      48.492
  O     -114.933      12.012      47.074
  C     -114.830      10.654      49.081
  O     -116.148      10.075      49.239
  C     -114.042       9.674      48.218
  O     -112.644       9.778      48.448
  C     -114.554       8.343      48.751
  O     -113.880       8.014      49.981
  C     -116.039       8.645      49.013
  N     -119.909       5.691      47.624
  C     -119.291       5.833      48.854
  N     -119.788       5.083      49.867
  N     -118.284       6.638      49.074
  C     -117.907       7.334      47.976
  C     -118.435       7.281      46.704
  C     -119.543       6.377      46.473
  O     -120.119       6.196      45.401
  N     -117.783       8.138      45.854
  C     -116.873       8.722      46.609
  N     -116.896       8.258      47.903
  O     -117.160      13.085      46.668
  O     -115.083      14.585      46.572
  H     -114.136       7.099      50.204
  H     -117.365      13.675      47.417
  H     -120.676       5.052      47.511
  H     -116.181       9.484      46.269
  H     -116.417       8.136      49.907
  H     -114.365       7.517      48.057
  H     -120.591       4.481      49.780
  H     -114.302       9.784      47.154
  H     -119.368       5.200      50.784
  H     -114.360      10.720      50.072
  H     -115.794      12.581      48.871
  H     -114.052      12.678      48.807
  P     -111.756      10.493      47.318
  C     -110.635       9.707      45.109
  O     -111.468       9.377      46.209
  O     -110.342      10.690      48.050
  O     -112.302      11.792      46.819
  H     -109.901      11.493      47.714
  H     -110.419       8.794      44.547
  H     -109.694      10.146      45.448
  H     -111.154      10.411      44.446
  H     -114.510      12.502      43.012
  H     -113.753      12.002      44.506
  H     -113.847      13.699      44.099

 3  4  5  6  7  8  9  10  11  12  23  26  30  31 0
 6-311+G(2d,p)
 ****
 33  35  36  37  38 0
 6-311+G(2d,p)
 ****
 1  2  13  14  15  16  17  18  19  20  21  22  24  25 0
 3-21G
 ****
 27  28  29  32  34  39  40  41  42  43  44  45  46  47  48  49 0
 3-21G
 ****


