%nproc=1
%NoSave
%Mem=1900MB
#P OB98/GEN NMR

erre ene a

0 1
  C       21.111     -14.683      36.381
  O       20.128     -14.338      35.426
  H       21.010     -14.055      37.270
  H       20.970     -15.727      36.671
  H       22.111     -14.565      35.953
  P       20.138     -12.824      34.893
  C       18.372     -11.800      36.506
  O       18.664     -12.263      35.195
  C       16.944     -12.189      36.871
  O       16.695     -11.911      38.268
  C       15.880     -11.416      36.100
  O       15.640     -11.958      34.813
  C       14.679     -11.603      37.010
  O       14.141     -12.926      36.840
  C       15.319     -11.462      38.400
  N       12.363      -7.537      39.835
  C       12.064      -8.791      39.432
  N       12.910      -9.783      39.087
  C       14.185      -9.382      39.201
  C       14.644      -8.138      39.606
  C       13.666      -7.183      39.929
  N       13.966      -5.894      40.310
  N       16.024      -8.096      39.575
  C       16.388      -9.298      39.178
  N       15.313     -10.100      38.907
  O       20.142     -12.981      33.300
  O       21.244     -11.961      35.399
  H       13.902     -13.018      35.898
  H       20.373     -12.133      32.876
  H       11.006      -9.026      39.374
  H       17.411      -9.631      39.059
  H       14.833     -12.092      39.153
  H       13.872     -10.898      36.795
  H       16.122     -10.348      36.042
  H       16.832     -13.270      36.722
  H       18.476     -10.710      36.532
  H       13.199      -5.244      40.376
  H       14.921      -5.578      40.241
  H       19.077     -12.246      37.215
  P       15.754     -10.963      33.557
  C       14.368      -9.010      34.563
  O       14.439     -10.043      33.587
  O       15.499     -11.930      32.310
  O       17.055     -10.236      33.454
  H       16.001     -11.631      31.529
  H       13.441      -8.486      34.461
  H       15.181      -8.328      34.421
  H       14.429      -9.439      35.541

 6  7  8  9  10  11  12  13  14  15  25  28  32  33  34  35 0
 6-311+G(2d,p)
 ****
 36  39  40 0
 6-311+G(2d,p)
 ****
 1  2  3  4  5  16  17  18  19  20  21  22  23  24 0
 3-21G
 ****
 26  27  29  30  31  37  38  41  42  43  44  45  46  47 0
 3-21G
 ****
 48 0
 3-21G
 ****


