%nproc=1
%NoSave
%Mem=1900MB
#P OB98/GEN NMR

erre ene a

0 1
  C       27.008     449.763     -92.439
  O       25.578     449.759     -92.364
  P       24.913     449.382     -90.956
  C       25.483     451.435     -89.461
  O       24.494     450.736     -90.209
  C       25.100     452.912     -89.336
  O       25.246     453.598     -90.593
  C       23.650     453.123     -88.933
  O       23.482     452.904     -87.544
  C       23.409     454.565     -89.360
  O       23.724     455.493     -88.310
  C       24.372     454.742     -90.556
  N       23.677     454.919     -91.819
  C       24.184     455.910     -92.667
  O       25.147     456.592     -92.315
  N       23.563     456.124     -93.873
  C       22.517     455.424     -94.192
  N       21.942     455.684     -95.399
  C       21.936     454.384     -93.316
  C       22.556     454.190     -92.155
  O       26.150     448.850     -90.093
  O       23.830     448.354     -91.054
  H       24.687     455.404     -88.162
  H       25.863     448.155     -89.478
  H       21.059     453.836     -93.622
  H       22.201     453.446     -91.451
  H       25.017     455.617     -90.401
  H       22.357     454.733     -89.626
  H       23.000     452.451     -89.509
  H       25.769     453.386     -88.599
  H       22.370     456.403     -95.974
  H       26.456     451.341     -89.948
  H       21.128     455.205     -95.742
  H       25.576     450.970     -88.474
  P       22.174     452.115     -87.070
  C       23.225     450.885     -85.079
  O       22.357     451.921     -85.484
  O       22.454     450.636     -87.615
  O       20.852     452.639     -87.527
  H       21.679     450.067     -87.471
  H       23.422     450.992     -84.008
  H       24.174     450.937     -85.613
  H       22.752     449.910     -85.250
  H       27.312     450.030     -93.429
  H       27.380     448.788     -92.202
  H       27.400     450.474     -91.742

 3  4  5  6  7  8  9  10  11  12  13  21  23  27  28  29  30  32 0
 6-311+G(2d,p)
 ****
 34  35 0
 6-311+G(2d,p)
 ****
 1  2  14  15  16  17  18  19  20  22  24  25  26 0
 3-21G
 ****
 31  33  36  37  38  39  40  41  42  43  44  45  46 0
 3-21G
 ****


