%nproc=1
%NoSave
%Mem=1900MB
#P OB98/GEN NMR

erre ene a

0 1
  C     -898.980     349.276    -172.210
  O     -898.280     349.337    -170.980
  H     -899.030     348.225    -172.532
  H     -898.450     349.852    -172.979
  H     -900.000     349.654    -172.094
  P     -898.020     350.771    -170.320
  C     -898.550     350.366    -167.824
  O     -897.540     350.502    -168.809
  C     -898.030     349.566    -166.625
  O     -897.830     348.197    -167.070
  C     -896.690     350.104    -166.101
  O     -896.690     350.376    -164.691
  C     -895.670     349.081    -166.608
  O     -894.490     348.979    -165.847
  C     -896.500     347.796    -166.691
  N     -895.980     346.825    -167.658
  C     -895.050     345.889    -167.182
  O     -894.650     345.820    -166.005
  N     -894.560     345.005    -168.101
  C     -894.890     344.964    -169.430
  O     -894.440     344.146    -170.215
  C     -895.860     345.991    -169.886
  C     -896.340     346.857    -168.992
  O     -899.120     351.773    -170.456
  O     -896.670     351.281    -171.039
  H     -894.010     348.197    -166.158
  H     -896.900     351.946    -171.715
  H     -893.910     344.318    -167.776
  H     -896.130     345.987    -170.917
  H     -897.060     347.605    -169.276
  H     -896.550     347.305    -165.728
  H     -895.370     349.385    -167.634
  H     -896.460     351.073    -166.538
  H     -898.800     349.557    -165.846
  H     -899.400     349.844    -168.282
  H     -898.860     351.363    -167.494
  P     -896.910     351.812    -164.047
  C     -897.040     351.271    -161.487
  O     -896.280     351.789    -162.564
  O     -898.280     352.407    -164.198
  O     -895.870     352.749    -164.880
  H     -896.280     353.628    -164.934
  H     -896.469     351.334    -160.584
  H     -897.285     350.248    -161.683
  H     -897.940     351.839    -161.380

 6  7  8  9  10  11  12  13  14  15  16  26  31  32  33  34  35 0
 6-311+G(2d,p)
 ****
 36  37 0
 6-311+G(2d,p)
 ****
 1  2  3  4  5  17  18  19  20  21  22  23  24  25 0
 3-21G
 ****
 27  28  29  30  38  39  40  41  42  43  44  45 0
 3-21G
 ****


