%nproc=1
%NoSave
%Mem=1900MB
#P OB98/GEN NMR

erre ene a

0 1
  C      110.748    -212.938     306.437
  O      110.004    -213.841     305.644
  H      111.512    -212.470     305.810
  H      111.241    -213.475     307.252
  H      110.096    -212.160     306.843
  P      108.719    -214.512     306.324
  C      109.861    -216.447     307.683
  O      109.064    -216.063     306.570
  C      109.761    -217.956     307.899
  O      108.435    -218.335     308.318
  C      109.992    -218.774     306.641
  O      111.339    -218.770     306.224
  C      109.492    -220.135     307.103
  O      110.475    -220.803     307.907
  C      108.265    -219.733     307.960
  N      107.004    -219.967     307.271
  C      106.649    -221.310     307.086
  O      107.380    -222.207     307.503
  N      105.491    -221.595     306.406
  C      104.741    -220.632     305.974
  N      103.612    -220.982     305.301
  C      105.064    -219.205     306.171
  C      106.200    -218.948     306.815
  O      107.673    -214.570     305.116
  O      108.212    -213.823     307.548
  H      111.242    -220.965     307.324
  H      108.020    -215.008     304.321
  H      104.402    -218.434     305.800
  H      106.512    -217.928     307.001
  H      108.249    -220.300     308.899
  H      109.266    -220.797     306.265
  H      109.330    -218.429     305.837
  H      110.465    -218.232     308.695
  H      103.434    -221.970     305.167
  H      109.559    -215.906     308.585
  H      102.971    -220.320     304.890
  H      110.896    -216.166     307.460
  P      111.818    -217.827     305.020
  C      111.528    -219.517     303.100
  O      112.453    -218.801     303.912
  O      112.692    -216.685     305.416
  O      110.441    -217.384     304.331
  H      109.901    -218.119     303.992
  H      112.063    -220.129     302.404
  H      110.912    -218.824     302.566
  H      110.914    -220.136     303.720

 6  7  8  9  10  11  12  13  14  15  16  26  30  31  32  33  35 0
 6-311+G(2d,p)
 ****
 37  38 0
 6-311+G(2d,p)
 ****
 1  2  3  4  5  17  18  19  20  21  22  23  24  25 0
 3-21G
 ****
 27  28  29  34  36  39  40  41  42  43  44  45  46 0
 3-21G
 ****


