%nproc=1
%NoSave
%Mem=1900MB
#P OB98/GEN NMR

erre ene a

0 1
  C       -2.187    -393.402     716.577
  O       -2.818    -392.386     715.834
  H       -1.272    -393.695     716.052
  H       -2.833    -394.281     716.650
  H       -1.917    -393.045     717.575
  P       -4.220    -391.788     716.352
  C       -5.436    -393.632     715.031
  O       -5.302    -392.228     715.242
  C       -6.613    -393.939     714.112
  O       -7.862    -393.734     714.836
  C       -6.662    -393.067     712.847
  O       -6.895    -393.886     711.696
  C       -7.863    -392.156     713.083
  O       -8.432    -391.662     711.876
  C       -8.761    -393.084     713.915
  N       -9.818    -392.352     714.591
  C      -10.989    -392.125     713.858
  O      -11.080    -392.545     712.704
  N      -11.998    -391.390     714.416
  C      -11.833    -390.879     715.602
  N      -12.863    -390.132     716.092
  C      -10.608    -391.062     716.406
  C       -9.650    -391.805     715.850
  O       -4.196    -390.331     716.669
  O       -4.614    -392.703     717.607
  H       -9.177    -391.061     712.103
  H       -5.243    -392.201     718.182
  H      -10.521    -390.613     717.387
  H       -8.715    -392.000     716.360
  H       -9.221    -393.863     713.283
  H       -7.550    -391.302     713.687
  H       -5.750    -392.485     712.685
  H       -6.582    -395.011     713.856
  H      -13.685    -390.025     715.507
  H       -5.567    -394.121     716.008
  H      -12.848    -389.665     716.986
  H       -4.510    -393.998     714.571
  P       -5.601    -394.561     711.026
  C       -5.117    -392.443     709.604
  O       -5.352    -393.844     709.611
  O       -6.111    -396.031     710.642
  O       -4.418    -394.613     711.947
  H       -5.679    -396.695     711.214
  H       -4.970    -392.111     708.598
  H       -4.244    -392.225     710.183
  H       -5.960    -391.938     710.026

 6  7  8  9  10  11  12  13  14  15  16  26  30  31  32  33  35 0
 6-311+G(2d,p)
 ****
 37  38 0
 6-311+G(2d,p)
 ****
 1  2  3  4  5  17  18  19  20  21  22  23  24  25 0
 3-21G
 ****
 27  28  29  34  36  39  40  41  42  43  44  45  46 0
 3-21G
 ****


