%nproc=1
%NoSave
%Mem=1900MB
#P OB98/GEN NMR

erre ene a

0 1
  C      809.683    -385.968     -62.466
  O      810.823    -386.693     -62.049
  H      809.089    -385.711     -61.583
  H      809.067    -386.574     -63.136
  H      809.982    -385.046     -62.968
  P      811.852    -387.196     -63.168
  C      813.854    -385.925     -62.141
  O      812.986    -386.061     -63.258
  C      815.265    -386.362     -62.514
  O      815.672    -385.750     -63.753
  C      816.325    -385.989     -61.472
  O      816.323    -386.934     -60.409
  C      817.576    -386.057     -62.334
  O      817.957    -387.432     -62.535
  C      817.089    -385.433     -63.649
  N      820.343    -381.562     -63.274
  C      820.544    -382.913     -63.058
  N      821.774    -383.276     -62.639
  N      819.613    -383.820     -63.214
  C      818.413    -383.301     -63.569
  C      818.087    -381.987     -63.801
  C      819.140    -380.997     -63.674
  O      819.015    -379.783     -63.879
  N      816.753    -381.831     -64.079
  C      816.282    -383.060     -64.058
  N      817.247    -383.987     -63.741
  O      811.265    -387.572     -64.495
  O      812.612    -388.423     -62.478
  H      817.205    -387.863     -62.984
  H      812.174    -389.270     -62.686
  H      821.095    -380.913     -63.118
  H      815.252    -383.338     -64.268
  H      817.585    -385.866     -64.521
  H      818.431    -385.552     -61.879
  H      822.420    -382.613     -62.231
  H      816.199    -384.965     -61.121
  H      821.924    -384.257     -62.424
  H      815.243    -387.450     -62.683
  H      813.456    -386.550     -61.334
  H      813.869    -384.882     -61.801
  P      816.927    -386.546     -58.970
  C      814.573    -385.839     -58.153
  O      815.921    -385.439     -58.387
  O      818.363    -386.139     -58.979
  O      816.614    -387.813     -58.050
  H      817.322    -388.503     -58.075
  H      814.017    -385.010     -57.768
  H      814.557    -386.640     -57.444
  H      814.134    -386.167     -59.072

 6  7  8  9  10  11  12  13  14  15  26  29  33  34 0
 6-311+G(2d,p)
 ****
 36  38  39  40  41 0
 6-311+G(2d,p)
 ****
 1  2  3  4  5  16  17  18  19  20  21  22  23  24  25 0
 3-21G
 ****
 27  28  30  31  32  35  37  42  43  44  45  46  47 0
 3-21G
 ****
 48  49 0
 3-21G
 ****


