%nproc=1
%NoSave
%Mem=1900MB
#P OB98/GEN NMR

erre ene a

0 1
  C       89.276     213.263      40.902
  O       90.396     212.822      40.153
  P       90.410     212.887      38.547
  C       89.182     211.556      36.700
  O       89.567     211.612      38.063
  C       88.280     210.344      36.451
  O       87.156     210.408      37.367
  C       87.713     210.259      35.028
  O       87.633     208.870      34.686
  C       86.327     210.855      35.179
  O       85.442     210.450      34.145
  C       85.949     210.356      36.579
  N       84.888     211.149      37.188
  C       83.571     210.737      36.984
  O       83.315     209.753      36.290
  N       82.559     211.455      37.572
  C       82.833     212.536      38.234
  N       81.802     213.179      38.847
  C       84.202     213.066      38.381
  C       85.169     212.317      37.859
  O       91.764     213.006      37.938
  O       89.425     214.092      38.192
  H       85.694     210.916      33.326
  H       89.872     214.974      38.210
  H       84.376     213.988      38.919
  H       86.204     212.614      37.941
  H       85.647     209.304      36.535
  H       86.396     211.948      35.155
  H       88.337     210.777      34.294
  H       88.848     209.437      36.693
  H       80.911     212.693      38.868
  H       90.083     211.453      36.091
  H       81.967     213.811      39.623
  H       88.678     212.486      36.419
  P       87.198     208.479      33.190
  C       84.966     207.616      32.191
  O       85.598     208.463      33.126
  O       87.550     206.910      33.152
  O       87.914     209.185      32.086
  H       87.715     206.646      32.229
  H       83.882     207.730      32.293
  H       85.223     206.571      32.382
  H       85.251     207.889      31.172
  H       89.472     213.134      41.946
  H       88.415     212.690      40.627
  H       89.096     214.298      40.698

 3  4  5  6  7  8  9  10  11  12  13  23  27  28  29  30  32 0
 6-311+G(2d,p)
 ****
 34  35 0
 6-311+G(2d,p)
 ****
 1  2  14  15  16  17  18  19  20  21  22  24  25  26 0
 3-21G
 ****
 31  33  36  37  38  39  40  41  42  43  44  45  46 0
 3-21G
 ****


