%nproc=1
%NoSave
%Mem=1900MB
#P OB98/GEN NMR

erre ene a

0 1
  C      -81.256     207.048     -59.092
  O      -80.666     205.798     -58.806
  H      -81.731     206.991     -60.075
  H      -80.495     207.833     -59.115
  H      -82.019     207.297     -58.348
  P      -80.011     205.562     -57.361
  C      -77.556     205.799     -58.102
  O      -78.620     206.358     -57.344
  C      -76.304     205.679     -57.235
  O      -75.283     204.920     -57.924
  C      -75.664     207.018     -56.888
  O      -76.404     207.687     -55.883
  C      -74.275     206.562     -56.469
  O      -74.278     206.045     -55.128
  C      -74.003     205.425     -57.485
  N      -73.187     205.867     -58.623
  C      -71.859     206.177     -58.342
  O      -71.375     206.099     -57.216
  N      -71.114     206.624     -59.403
  C      -71.588     206.871     -60.661
  O      -70.949     207.478     -61.518
  C      -72.972     206.456     -60.918
  C      -73.703     205.996     -59.899
  O      -79.934     204.141     -56.907
  O      -80.933     206.440     -56.383
  H      -81.561     205.849     -55.920
  H      -73.386     205.687     -54.965
  H      -70.167     206.897     -59.201
  H      -73.367     206.575     -61.919
  H      -74.742     205.710     -60.058
  H      -73.484     204.591     -56.997
  H      -73.543     207.372     -56.498
  H      -75.575     207.638     -57.787
  H      -76.574     205.127     -56.323
  H      -77.346     206.464     -58.952
  H      -77.861     204.819     -58.484
  P      -76.892     209.198     -56.085
  C      -74.814     210.026     -54.831
  O      -75.602     210.148     -56.003
  O      -78.025     209.617     -55.204
  O      -77.306     209.282     -57.627
  H      -78.213     209.633     -57.698
  H      -73.987     210.702     -54.885
  H      -74.450     209.023     -54.749
  H      -75.410     210.260     -53.974

 6  7  8  9  10  11  12  13  14  15  16  27  31  32  33  34  35 0
 6-311+G(2d,p)
 ****
 36  37 0
 6-311+G(2d,p)
 ****
 1  2  3  4  5  17  18  19  20  21  22  23  24  25 0
 3-21G
 ****
 26  28  29  30  38  39  40  41  42  43  44  45 0
 3-21G
 ****


