%nproc=1
%NoSave
%Mem=1900MB
#P OB98/GEN NMR

erre ene a

0 1
  C      154.303     270.626     277.534
  O      154.724     270.879     276.192
  P      155.882     269.966     275.559
  C      157.559     271.869     276.026
  O      157.069     270.933     275.071
  C      158.901     272.444     275.582
  O      159.930     271.431     275.535
  C      158.868     273.047     274.182
  O      158.195     274.296     274.188
  C      160.351     273.105     273.843
  O      160.962     274.276     274.416
  C      160.887     271.828     274.535
  N      161.173     270.749     273.603
  C      162.178     270.999     272.666
  O      162.744     272.092     272.630
  N      162.508     269.999     271.783
  C      161.885     268.863     271.821
  N      162.258     267.912     270.919
  C      160.807     268.565     272.787
  C      160.500     269.547     273.630
  O      155.433     268.953     274.558
  O      156.517     269.256     276.853
  H      160.534     275.040     273.976
  H      156.865     268.383     276.590
  H      160.322     267.601     272.787
  H      159.718     269.417     274.376
  H      161.821     272.058     275.076
  H      160.518     273.150     272.763
  H      158.358     272.353     273.499
  H      159.202     273.213     276.311
  H      162.987     268.143     270.266
  H      157.667     271.375     276.999
  H      161.865     266.978     270.907
  H      156.815     272.661     276.160
  P      156.593     274.274     274.231
  C      156.309     274.611     271.672
  O      156.059     275.114     272.973
  O      156.255     275.229     275.476
  O      155.992     272.917     274.411
  H      155.450     274.904     275.923
  H      155.630     275.101     270.969
  H      156.143     273.533     271.625
  H      157.340     274.835     271.385
  H      153.531     271.316     277.802
  H      155.134     270.746     278.197
  H      153.929     269.626     277.608

 3  4  5  6  7  8  9  10  11  12  13  23  27  28  29  30  32 0
 6-311+G(2d,p)
 ****
 34  35 0
 6-311+G(2d,p)
 ****
 1  2  14  15  16  17  18  19  20  21  22  24  25  26 0
 3-21G
 ****
 31  33  36  37  38  39  40  41  42  43  44  45  46 0
 3-21G
 ****


