%nproc=1
%NoSave
%Mem=1900MB
#P OB98/GEN NMR

erre ene a

0 1
  C      124.991      58.845      68.376
  O      123.771      59.120      67.718
  H      124.783      58.214      69.243
  H      125.461      59.770      68.722
  H      125.670      58.308      67.709
  P      123.790      60.131      66.471
  C      124.019      58.178      64.783
  O      124.614      59.342      65.335
  C      124.840      57.680      63.596
  O      124.280      56.465      63.053
  C      124.901      58.640      62.412
  O      125.750      59.754      62.633
  C      125.437      57.704      61.341
  O      126.845      57.495      61.545
  C      124.637      56.412      61.643
  N      123.438      56.278      60.817
  C      123.635      56.206      59.432
  O      124.770      56.254      58.958
  N      122.537      56.116      58.611
  C      121.348      56.120      59.124
  N      120.292      56.078      58.263
  C      121.094      56.177      60.575
  C      122.170      56.260      61.356
  O      124.263      61.521      66.753
  O      122.301      60.071      65.887
  H      127.271      58.371      61.530
  H      122.258      60.691      65.119
  H      120.081      56.184      60.952
  H      122.065      56.322      62.433
  H      125.264      55.525      61.502
  H      125.309      58.089      60.326
  H      123.897      58.965      62.119
  H      125.843      57.432      63.967
  H      120.503      56.083      57.274
  H      122.998      58.429      64.478
  H      119.362      56.355      58.556
  H      123.980      57.382      65.533
  P      125.861      60.856      61.469
  C      123.391      61.621      61.788
  O      124.373      61.091      60.914
  O      126.584      60.055      60.289
  O      126.582      62.115      61.835
  H      127.551      60.193      60.312
  H      122.462      61.715      61.266
  H      123.704      62.584      62.134
  H      123.266      60.965      62.624

 6  7  8  9  10  11  12  13  14  15  16  26  30  31  32  33  35 0
 6-311+G(2d,p)
 ****
 37  38 0
 6-311+G(2d,p)
 ****
 1  2  3  4  5  17  18  19  20  21  22  23  24  25 0
 3-21G
 ****
 27  28  29  34  36  39  40  41  42  43  44  45  46 0
 3-21G
 ****


