%nproc=1
%NoSave
%Mem=1900MB
#P OB98/GEN NMR

erre ene a

0 1
  C     -862.549    -168.656     110.109
  O     -861.516    -167.694     110.232
  P     -860.046    -168.223     110.612
  C     -859.297    -168.484     108.135
  O     -859.544    -169.131     109.378
  C     -857.896    -168.822     107.621
  O     -856.912    -168.319     108.569
  C     -857.629    -170.325     107.437
  O     -856.763    -170.456     106.302
  C     -856.906    -170.674     108.725
  O     -856.201    -171.908     108.675
  C     -856.053    -169.433     108.907
  N     -851.822    -168.960     111.746
  C     -852.009    -169.002     110.411
  N     -853.164    -169.122     109.725
  C     -854.217    -169.189     110.566
  C     -854.178    -169.170     111.950
  C     -852.907    -169.047     112.549
  N     -852.727    -169.013     113.918
  N     -855.451    -169.279     112.471
  C     -856.242    -169.363     111.423
  N     -855.536    -169.294     110.253
  O     -860.332    -169.299     111.756
  O     -859.091    -167.163     111.061
  H     -856.830    -172.654     108.585
  H     -859.653    -169.262     112.455
  H     -851.110    -168.939     109.805
  H     -857.313    -169.495     111.458
  H     -855.193    -169.416     108.215
  H     -857.641    -170.762     109.535
  H     -858.541    -170.910     107.258
  H     -857.734    -168.295     106.672
  H     -859.356    -167.398     108.270
  H     -851.782    -169.127     114.245
  H     -853.508    -169.283     114.495
  H     -860.063    -168.779     107.415
  P     -857.083    -171.587     105.213
  C     -858.484    -169.818     103.988
  O     -858.475    -171.112     104.547
  O     -857.570    -172.797     106.153
  O     -855.971    -171.937     104.292
  H     -858.257    -172.502     106.777
  H     -859.448    -169.658     103.500
  H     -857.685    -169.714     103.248
  H     -858.369    -169.065     104.774
  H     -863.465    -168.165     109.855
  H     -862.667    -169.173     111.038
  H     -862.295    -169.356     109.341

 3  4  5  6  7  8  9  10  11  12  22  25  29  30  31  32 0
 6-311+G(2d,p)
 ****
 33  36  37 0
 6-311+G(2d,p)
 ****
 1  2  13  14  15  16  17  18  19  20  21  23  24  26 0
 3-21G
 ****
 27  28  34  35  38  39  40  41  42  43  44  45  46  47  48 0
 3-21G
 ****


