%nproc=1
%NoSave
%Mem=1900MB
#P OB98/GEN NMR

erre ene a

0 1
  C      174.351     388.442    -547.002
  O      175.171     389.403    -547.635
  H      174.981     387.617    -546.656
  H      173.610     388.044    -547.702
  H      173.846     388.883    -546.137
  P      174.474     390.681    -548.302
  C      175.314     392.461    -546.620
  O      174.200     391.721    -547.115
  C      175.194     393.932    -547.010
  O      175.232     394.078    -548.442
  C      173.898     394.596    -546.555
  O      173.934     394.864    -545.169
  C      173.883     395.818    -547.457
  O      174.770     396.834    -546.964
  C      174.416     395.221    -548.785
  N      173.363     394.847    -549.724
  C      173.252     395.642    -550.872
  O      174.008     396.598    -551.043
  N      172.274     395.334    -551.785
  C      171.505     394.307    -551.598
  N      170.565     394.050    -552.542
  C      171.612     393.428    -550.419
  C      172.544     393.761    -549.526
  O      173.284     390.406    -549.172
  O      175.657     391.378    -549.126
  H      174.787     397.530    -547.651
  H      175.650     391.075    -550.054
  H      170.961     392.577    -550.307
  H      172.689     393.166    -548.629
  H      175.075     395.941    -549.288
  H      172.892     396.267    -547.529
  H      173.042     393.962    -546.818
  H      176.070     394.459    -546.602
  H      170.538     394.675    -553.345
  H      176.212     392.023    -547.068
  H      170.025     393.199    -552.582
  H      175.389     392.363    -545.531
  P      172.636     394.675    -544.247
  C      172.991     392.370    -543.164
  O      172.355     393.092    -544.206
  O      171.462     395.512    -544.624
  O      173.180     394.965    -542.769
  H      173.283     395.940    -542.626
  H      172.732     391.334    -543.238
  H      172.669     392.752    -542.218
  H      174.052     392.479    -543.250

 6  7  8  9  10  11  12  13  14  15  16  26  30  31  32  33  35 0
 6-311+G(2d,p)
 ****
 37  38 0
 6-311+G(2d,p)
 ****
 1  2  3  4  5  17  18  19  20  21  22  23  24  25 0
 3-21G
 ****
 27  28  29  34  36  39  40  41  42  43  44  45  46 0
 3-21G
 ****


