%nproc=1
%NoSave
%Mem=1900MB
#P OB98/GEN NMR

erre ene a

0 1
  C       -3.180     200.119     129.048
  O       -2.302     199.096     129.481
  P       -1.891     199.044     131.032
  C        0.546     199.894     130.537
  O       -0.681     200.080     131.219
  C        1.692     199.717     131.538
  O        2.875     199.267     130.825
  C        2.072     200.994     132.299
  O        2.461     200.601     133.623
  C        3.273     201.505     131.522
  O        4.092     202.376     132.286
  C        3.946     200.182     131.134
  N        4.861     200.305     129.998
  C        6.221     200.431     130.269
  O        6.692     200.468     131.406
  N        7.035     200.548     129.173
  C        6.632     200.613     127.872
  O        7.408     200.736     126.930
  C        5.184     200.522     127.650
  C        4.379     200.366     128.703
  O       -1.193     197.608     131.119
  O       -3.038     199.246     131.963
  H       -0.696     197.378     130.315
  H        4.910     202.540     131.782
  H        8.030     200.603     129.345
  H        4.820     200.586     126.631
  H        3.306     200.296     128.567
  H        4.484     199.770     131.995
  H        2.926     202.051     130.637
  H        1.249     201.714     132.350
  H        1.413     198.921     132.243
  H        0.750     200.766     129.913
  H        0.463     199.020     129.878
  P        2.338     201.689     134.803
  C        4.896     202.214     135.009
  O        3.602     202.665     134.686
  O        2.713     200.773     136.070
  O        0.997     202.334     134.931
  H        3.516     200.246     135.930
  H        5.629     202.886     134.556
  H        5.071     201.203     134.632
  H        5.029     202.229     136.094
  H       -3.355     200.018     127.997
  H       -2.740     201.074     129.246
  H       -4.108     200.038     129.574

 3  4  5  6  7  8  9  10  11  12  13  24  28  29  30  31  32 0
 6-311+G(2d,p)
 ****
 33  34 0
 6-311+G(2d,p)
 ****
 1  2  14  15  16  17  18  19  20  21  22  23  25  26  27 0
 3-21G
 ****
 35  36  37  38  39  40  41  42  43  44  45 0
 3-21G
 ****


