%nproc=1
%NoSave
%Mem=1900MB
#P OB98/GEN NMR

erre ene a

0 1
  C     -262.329     481.823    -127.207
  O     -261.351     480.806    -127.186
  H     -261.846     482.769    -127.462
  H     -262.788     481.917    -126.218
  H     -263.102     481.612    -127.952
  P     -261.822     479.279    -127.158
  C     -262.723     477.569    -128.871
  O     -262.216     478.877    -128.662
  C     -262.518     477.129    -130.326
  O     -263.078     478.141    -131.205
  C     -261.026     477.014    -130.672
  O     -260.792     476.061    -131.703
  C     -260.697     478.402    -131.197
  O     -259.550     478.422    -132.047
  C     -261.995     478.777    -131.909
  N     -261.986     482.968    -134.812
  C     -261.486     481.710    -135.092
  N     -260.914     481.544    -136.311
  N     -261.528     480.711    -134.251
  C     -262.062     481.035    -133.051
  C     -262.566     482.252    -132.644
  C     -262.551     483.338    -133.598
  O     -262.954     484.480    -133.394
  N     -263.017     482.200    -131.346
  C     -262.780     480.962    -130.967
  N     -262.224     480.207    -131.972
  O     -263.250     479.338    -126.433
  O     -260.894     478.325    -126.467
  H     -259.663     477.716    -132.705
  H     -263.474     478.469    -126.050
  H     -261.957     483.693    -135.505
  H     -263.006     480.557    -129.988
  H     -261.998     478.397    -132.938
  H     -260.478     479.046    -130.343
  H     -260.694     482.333    -136.901
  H     -260.418     476.764    -129.812
  H     -260.280     480.749    -136.408
  H     -263.066     476.201    -130.520
  H     -263.787     477.594    -128.620
  H     -262.249     476.862    -128.183
  P     -259.790     474.845    -131.408
  C     -260.131     473.188    -129.370
  O     -260.557     473.686    -130.621
  O     -258.777     475.438    -130.324
  O     -259.074     474.329    -132.619
  H     -257.876     475.486    -130.691
  H     -260.801     472.420    -129.045
  H     -260.124     473.983    -128.653
  H     -259.145     472.784    -129.464

 6  7  8  9  10  11  12  13  14  15  26  29  33  34 0
 6-311+G(2d,p)
 ****
 36  38  39  40  41 0
 6-311+G(2d,p)
 ****
 1  2  3  4  5  16  17  18  19  20  21  22  23  24  25 0
 3-21G
 ****
 27  28  30  31  32  35  37  42  43  44  45  46  47 0
 3-21G
 ****
 48  49 0
 3-21G
 ****


