%nproc=1
%NoSave
%Mem=1900MB
#P OB98/GEN NMR

erre ene a

0 1
  C     -472.569     667.369     263.642
  O     -473.161     666.451     262.721
  P     -474.574     666.876     262.073
  C     -476.094     665.894     263.942
  O     -475.616     667.058     263.281
  C     -477.427     666.175     264.631
  O     -478.287     666.984     263.797
  C     -478.239     664.924     264.957
  O     -477.774     664.276     266.123
  C     -479.623     665.522     265.176
  O     -479.730     666.032     266.522
  C     -479.651     666.684     264.162
  N     -481.985     668.574     260.076
  C     -481.335     669.222     261.102
  N     -481.276     670.568     261.013
  N     -480.790     668.613     262.119
  C     -480.900     667.269     262.061
  C     -481.521     666.500     261.098
  C     -482.147     667.190     259.991
  O     -482.765     666.661     259.073
  N     -481.421     665.161     261.382
  C     -480.723     665.114     262.484
  N     -480.391     666.366     262.956
  O     -475.065     665.539     261.357
  O     -474.474     668.025     261.120
  H     -479.645     665.270     267.120
  H     -475.650     665.751     260.608
  H     -482.389     669.086     259.318
  H     -480.419     664.208     262.997
  H     -480.082     667.590     264.595
  H     -480.426     664.796     265.059
  H     -481.604     671.102     260.220
  H     -478.267     664.242     264.090
  H     -480.765     671.067     261.744
  H     -477.223     666.725     265.562
  H     -475.362     665.559     264.685
  H     -476.188     665.087     263.211
  P     -476.777     663.030     265.921
  C     -478.800     661.469     266.367
  O     -477.717     661.795     265.521
  O     -476.323     662.701     267.420
  O     -475.623     663.303     265.036
  H     -475.434     662.295     267.419
  H     -479.337     662.364     266.687
  H     -478.438     660.914     267.231
  H     -479.496     660.830     265.812
  H     -471.641     666.970     263.996
  H     -473.231     667.521     264.469
  H     -472.391     668.303     263.150

 3  4  5  6  7  8  9  10  11  12  23  26  30  31  33  0
 6-311+G(2d,p)
 ****
 35  36  37  38 0
 6-311+G(2d,p)
 ****
 1  2  13  14  15  16  17  18  19  20  21  22  24  25  27  28  29 0
 3-21G
 ****
 32  34  39  40  41  42  43  44  45  46  47  48  49 0
 3-21G
 ****


