%nproc=1
%NoSave
%Mem=1900MB
#P OB98/GEN NMR

erre ene a

0 1
  C     -344.556    -283.236    -436.805
  O     -345.250    -282.326    -437.644
  H     -344.224    -284.086    -437.413
  H     -345.207    -283.604    -436.010
  H     -343.677    -282.756    -436.376
  P     -346.049    -281.122    -436.950
  C     -348.330    -282.002    -437.787
  O     -347.523    -281.701    -436.651
  C     -349.621    -282.708    -437.367
  O     -349.355    -284.092    -437.038
  C     -350.274    -282.116    -436.121
  O     -350.822    -280.831    -436.314
  C     -351.169    -283.252    -435.645
  O     -352.451    -283.269    -436.273
  C     -350.355    -284.503    -436.082
  N     -349.771    -285.201    -434.944
  C     -350.528    -286.242    -434.419
  O     -351.644    -286.560    -434.841
  N     -349.982    -286.887    -433.333
  C     -348.811    -286.557    -432.720
  O     -348.402    -287.155    -431.724
  C     -348.066    -285.433    -433.298
  C     -348.572    -284.814    -434.376
  O     -346.050    -279.819    -437.696
  O     -345.397    -281.022    -435.487
  H     -352.933    -282.481    -435.964
  H     -345.617    -280.159    -435.058
  H     -350.517    -287.651    -432.945
  H     -347.130    -285.150    -432.838
  H     -348.041    -283.978    -434.822
  H     -351.014    -285.208    -436.611
  H     -351.333    -283.200    -434.561
  H     -349.491    -281.999    -435.359
  H     -350.322    -282.693    -438.221
  H     -347.754    -282.667    -438.438
  H     -348.560    -281.082    -438.333
  P     -351.424    -279.940    -435.124
  C     -353.677    -279.639    -436.387
  O     -353.030    -280.045    -435.182
  O     -350.799    -278.608    -434.890
  O     -351.067    -280.864    -433.836
  H     -350.887    -280.263    -433.091
  H     -354.735    -279.762    -436.283
  H     -353.326    -280.240    -437.200
  H     -353.455    -278.611    -436.582

 6  7  8  9  10  11  12  13  14  15  16  26  31  32  33  34  35 0
 6-311+G(2d,p)
 ****
 36  37 0
 6-311+G(2d,p)
 ****
 1  2  3  4  5  17  18  19  20  21  22  23  24  25 0
 3-21G
 ****
 27  28  29  30  38  39  40  41  42  43  44  45 0
 3-21G
 ****


