%nproc=1
%NoSave
%Mem=1900MB
#P OB98/GEN NMR

erre ene a

0 1
  C      -86.307    -519.653     438.872
  O      -86.940    -518.867     437.885
  P      -88.493    -518.494     438.012
  C      -87.790    -516.796     439.814
  O      -88.685    -517.850     439.470
  C      -88.556    -515.647     440.459
  O      -89.322    -514.909     439.468
  C      -89.594    -516.084     441.481
  O      -89.126    -516.692     442.666
  C      -90.421    -514.820     441.629
  O      -89.797    -513.889     442.513
  C      -90.415    -514.274     440.179
  N      -91.695    -514.488     439.508
  C      -92.139    -513.448     438.699
  O      -91.519    -512.400     438.534
  N      -93.353    -513.638     438.095
  C      -94.169    -514.723     438.256
  O      -95.266    -514.806     437.719
  C      -93.651    -515.782     439.137
  C      -92.455    -515.623     439.719
  O      -89.441    -519.606     437.696
  O      -88.645    -517.221     437.054
  H      -89.719    -514.322     443.386
  H      -88.093    -516.457     437.304
  H      -93.701    -512.891     437.514
  H      -94.270    -516.661     439.276
  H      -92.058    -516.386     440.369
  H      -90.203    -513.192     440.178
  H      -91.418    -515.027     442.033
  H      -90.245    -516.837     441.007
  H      -87.835    -514.950     440.891
  H      -87.299    -516.434     438.901
  H      -87.015    -517.184     440.482
  P      -90.059    -517.530     443.660
  C      -88.920    -519.772     443.030
  O      -90.121    -519.044     443.139
  O      -91.348    -516.890     444.075
  O      -89.114    -517.665     444.952
  H      -89.670    -517.695     445.748
  H      -89.145    -520.761     442.621
  H      -88.463    -519.900     444.018
  H      -88.224    -519.263     442.358
  H      -85.279    -519.792     438.612
  H      -86.791    -520.605     438.935
  H      -86.371    -519.157     439.818

 3  4  5  6  7  8  9  10  11  12  13  23  28  29  30  31  32 0
 6-311+G(2d,p)
 ****
 33  34 0
 6-311+G(2d,p)
 ****
 1  2  14  15  16  17  18  19  20  21  22  24  25  26  27 0
 3-21G
 ****
 35  36  37  38  39  40  41  42  43  44  45 0
 3-21G
 ****


