%nproc=1
%NoSave
%Mem=1900MB
#P OB98/GEN NMR

erre ene a

0 1
  C      -46.736      45.184    -422.491
  O      -45.999      44.317    -423.328
  H      -47.394      45.809    -423.098
  H      -47.351      44.583    -421.814
  H      -46.070      45.811    -421.894
  P      -44.812      44.964    -424.190
  C      -42.493      45.833    -423.409
  O      -43.477      44.813    -423.308
  C      -41.094      45.241    -423.249
  O      -40.959      44.730    -421.891
  C      -40.777      44.093    -424.217
  O      -39.411      44.211    -424.633
  C      -40.921      42.857    -423.346
  O      -40.152      41.755    -423.824
  C      -40.458      43.386    -421.995
  N      -39.592      39.086    -419.421
  C      -38.811      39.815    -420.246
  N      -39.103      40.987    -420.851
  C      -40.317      41.426    -420.474
  C      -41.224      40.797    -419.641
  C      -40.825      39.554    -419.109
  N      -41.639      38.771    -418.323
  N      -42.388      41.537    -419.544
  C      -42.195      42.580    -420.329
  N      -40.961      42.553    -420.918
  O      -45.142      46.531    -424.107
  O      -44.707      44.491    -425.600
  H      -39.252      42.070    -424.041
  H      -45.752      46.775    -424.827
  H      -37.829      39.401    -420.458
  H      -42.919      43.353    -420.533
  H      -39.364      43.418    -421.904
  H      -41.973      42.552    -423.313
  H      -41.430      44.061    -425.096
  H      -40.361      46.053    -423.358
  H      -42.661      46.569    -422.616
  H      -41.306      37.850    -418.081
  H      -42.595      39.056    -418.176
  H      -42.589      46.332    -424.378
  P      -39.131      44.889    -426.060
  C      -40.253      46.975    -427.140
  O      -39.607      46.420    -426.001
  O      -40.218      44.201    -427.014
  O      -37.742      44.678    -426.568
  H      -39.867      44.109    -427.918
  H      -40.507      47.996    -426.944
  H      -41.144      46.420    -427.351
  H      -39.595      46.926    -427.982

 6  7  8  9  10  11  12  13  14  15  25  28  32  33  34  35 0
 6-311+G(2d,p)
 ****
 36  39  40 0
 6-311+G(2d,p)
 ****
 1  2  3  4  5  16  17  18  19  20  21  22  23  24 0
 3-21G
 ****
 26  27  29  30  31  37  38  41  42  43  44  45  46  47 0
 3-21G
 ****
 48 0
 3-21G
 ****


