%nproc=1
%NoSave
%Mem=1900MB
#P OB98/GEN NMR

erre ene a

0 1
  C        6.266    -120.036      75.717
  O        5.091    -119.307      75.398
  P        4.138    -119.890      74.246
  C        4.597    -117.937      72.579
  O        3.650    -118.632      73.373
  C        4.182    -116.472      72.407
  O        5.261    -115.760      71.745
  C        2.915    -116.256      71.567
  O        2.262    -115.094      72.091
  C        3.468    -115.955      70.185
  O        2.534    -115.259      69.365
  C        4.715    -115.156      70.550
  N        6.334    -112.876      66.332
  C        5.214    -112.619      67.104
  N        4.455    -111.565      66.727
  N        4.873    -113.325      68.149
  C        5.737    -114.337      68.412
  C        6.853    -114.716      67.702
  C        7.241    -113.902      66.571
  O        8.267    -114.040      65.912
  N        7.423    -115.844      68.227
  C        6.702    -116.101      69.298
  N        5.696    -115.186      69.480
  O        2.827    -120.322      75.050
  O        4.710    -121.007      73.431
  H        2.375    -114.380      69.769
  H        2.863    -121.268      75.299
  H        6.555    -112.285      65.551
  H        6.860    -116.922      69.981
  H        4.495    -114.103      70.770
  H        3.731    -116.891      69.678
  H        4.676    -110.959      65.952
  H        2.235    -117.114      71.575
  H        3.645    -111.334      67.295
  H        4.063    -116.029      73.401
  H        4.640    -118.404      71.589
  H        5.588    -118.010      73.042
  P        0.806    -115.280      72.743
  C       -0.381    -116.238      70.646
  O       -0.268    -115.166      71.564
  O        0.604    -113.916      73.557
  O        0.672    -116.466      73.644
  H        0.064    -114.084      74.351
  H       -1.372    -116.206      70.184
  H       -0.255    -117.209      71.140
  H        0.378    -116.130      69.865
  H        6.798    -119.532      76.496
  H        6.888    -120.108      74.849
  H        5.998    -121.018      76.046

 3  4  5  6  7  8  9  10  11  12  23  26  30  31 0
 6-311+G(2d,p)
 ****
 33  35  36  37  38 0
 6-311+G(2d,p)
 ****
 1  2  13  14  15  16  17  18  19  20  21  22  24  25 0
 3-21G
 ****
 27  28  29  32  34  39  40  41  42  43  44  45  46  47  48  49 0
 3-21G
 ****


