%nproc=1
%NoSave
%Mem=1900MB
#P OB98/GEN NMR

erre ene a

0 1
  C      444.984     767.658     299.965
  O      445.194     766.422     299.326
  P      446.685     765.851     299.181
  C      448.960     766.862     298.548
  O      447.552     766.931     298.378
  C      449.679     767.180     297.232
  O      449.054     768.319     296.589
  C      451.143     767.569     297.408
  O      451.943     766.424     297.645
  C      451.418     768.269     296.091
  O      451.685     767.313     295.041
  C      450.068     768.981     295.814
  N      451.519     773.631     294.253
  C      451.759     772.383     293.751
  N      451.372     771.201     294.259
  C      450.686     771.362     295.406
  C      450.387     772.564     296.046
  C      450.816     773.737     295.406
  N      450.520     775.006     295.867
  N      449.688     772.323     297.217
  C      449.576     770.997     297.278
  N      450.106     770.394     296.165
  O      446.789     764.444     298.674
  O      447.273     765.958     300.670
  H      452.494     766.822     295.302
  H      447.526     765.061     300.988
  H      452.339     772.353     292.833
  H      449.105     770.452     298.085
  H      449.775     768.905     294.763
  H      452.279     768.946     296.133
  H      451.246     768.288     298.224
  H      449.582     766.309     296.572
  H      449.230     765.849     298.874
  H      450.753     775.770     295.248
  H      449.756     775.114     296.538
  H      449.261     767.573     299.339
  P      453.476     766.593     298.086
  C      455.470     767.975     297.252
  O      454.196     767.447     296.934
  O      454.173     765.337     298.507
  O      453.400     767.643     299.304
  H      454.108     767.440     299.949
  H      455.344     768.861     297.885
  H      455.988     768.250     296.331
  H      456.084     767.235     297.781
  H      443.938     767.882     299.972
  H      445.510     768.426     299.437
  H      445.345     767.605     300.971

 3  4  5  6  7  8  9  10  11  12  22  25  29  30  31  32 0
 6-311+G(2d,p)
 ****
 33  36  37 0
 6-311+G(2d,p)
 ****
 1  2  13  14  15  16  17  18  19  20  21  23  24  26 0
 3-21G
 ****
 27  28  34  35  38  39  40  41  42  43  44  45  46  47  48 0
 3-21G
 ****


