%nproc=1
%NoSave
%Mem=1900MB
#P OB98/GEN NMR

erre ene a

0 1
  C       41.852    -166.900    -135.584
  O       41.484    -165.538    -135.629
  P       40.799    -164.811    -134.377
  C       38.497    -164.714    -133.256
  O       39.284    -165.325    -134.274
  C       37.138    -165.405    -133.112
  O       37.339    -166.848    -133.043
  C       36.341    -164.980    -131.870
  O       34.966    -164.924    -132.248
  C       36.585    -166.129    -130.902
  O       35.581    -166.203    -129.898
  C       36.641    -167.313    -131.872
  N       37.302    -168.475    -131.289
  C       36.478    -169.452    -130.730
  O       35.265    -169.257    -130.629
  N       37.055    -170.623    -130.296
  C       38.347    -170.721    -130.240
  N       38.875    -171.918    -129.869
  C       39.252    -169.602    -130.597
  C       38.671    -168.536    -131.142
  O       40.957    -163.327    -134.340
  O       41.501    -165.496    -133.103
  H       41.856    -164.794    -132.524
  H       34.707    -166.087    -130.321
  H       40.310    -169.684    -130.412
  H       39.250    -167.676    -131.456
  H       35.631    -167.605    -132.181
  H       37.558    -165.989    -130.403
  H       36.655    -164.005    -131.481
  H       36.553    -165.206    -134.024
  H       38.227    -172.672    -129.676
  H       38.333    -163.673    -133.536
  H       39.832    -172.180    -130.102
  H       39.035    -164.729    -132.305
  P       33.972    -164.009    -131.374
  C       32.705    -164.376    -129.139
  O       33.848    -164.662    -129.918
  O       32.544    -164.372    -132.029
  O       34.194    -162.528    -131.442
  H       31.924    -163.627    -131.877
  H       32.825    -164.845    -128.160
  H       31.801    -164.787    -129.616
  H       32.588    -163.297    -128.999
  H       42.290    -167.182    -136.519
  H       40.984    -167.498    -135.402
  H       42.561    -167.052    -134.798

 3  4  5  6  7  8  9  10  11  12  13  24  27  28  29  30  32 0
 6-311+G(2d,p)
 ****
 34  35 0
 6-311+G(2d,p)
 ****
 1  2  14  15  16  17  18  19  20  21  22  23  25  26 0
 3-21G
 ****
 31  33  36  37  38  39  40  41  42  43  44  45  46 0
 3-21G
 ****


