%nproc=1
%NoSave
%Mem=1900MB
#P OB98/GEN NMR

erre ene a

0 1
  C      -16.590     -58.358     355.868
  O      -15.651     -59.083     356.641
  H      -16.325     -57.297     355.896
  H      -17.599     -58.472     356.274
  H      -16.569     -58.699     354.830
  P      -15.913     -60.645     356.883
  C      -15.893     -60.209     359.434
  O      -16.607     -60.745     358.324
  C      -16.843     -59.434     360.342
  O      -17.395     -58.304     359.640
  C      -18.037     -60.258     360.804
  O      -17.661     -61.166     361.820
  C      -18.995     -59.163     361.226
  O      -18.672     -58.659     362.529
  C      -18.736     -58.091     360.141
  N      -19.712     -58.137     359.058
  C      -20.560     -57.028     358.949
  O      -20.456     -56.086     359.732
  N      -21.516     -57.033     357.965
  C      -21.611     -58.040     357.154
  N      -22.580     -57.981     356.203
  C      -20.729     -59.220     357.227
  C      -19.815     -59.204     358.196
  O      -14.746     -61.564     356.695
  O      -17.113     -60.984     355.880
  H      -17.777     -58.273     362.451
  H      -16.766     -61.257     355.011
  H      -20.839     -60.034     356.526
  H      -19.124     -60.032     358.318
  H      -18.754     -57.086     360.578
  H      -20.023     -59.519     361.254
  H      -18.479     -60.789     359.955
  H      -16.270     -59.055     361.197
  H      -23.170     -57.155     356.197
  H      -15.125     -59.540     359.033
  H      -22.689     -58.660     355.467
  H      -15.398     -61.008     359.998
  P      -18.068     -62.714     361.724
  C      -19.025     -62.597     364.116
  O      -19.292     -62.897     362.747
  O      -16.944     -63.681     361.888
  O      -18.784     -62.812     360.292
  H      -18.126     -62.773     359.557
  H      -19.911     -62.756     364.695
  H      -18.719     -61.575     364.204
  H      -18.245     -63.235     364.475

 6  7  8  9  10  11  12  13  14  15  16  26  30  31  32  33  35 0
 6-311+G(2d,p)
 ****
 37  38 0
 6-311+G(2d,p)
 ****
 1  2  3  4  5  17  18  19  20  21  22  23  24  25 0
 3-21G
 ****
 27  28  29  34  36  39  40  41  42  43  44  45  46 0
 3-21G
 ****


