%nproc=1
%NoSave
%Mem=1900MB
#P OB98/GEN NMR

erre ene a

0 1
  C      206.254    -190.882    -224.598
  O      205.736    -189.656    -224.105
  P      204.142    -189.476    -224.074
  C      203.624    -190.224    -221.653
  O      203.581    -190.563    -223.032
  C      202.459    -190.859    -220.900
  O      201.219    -190.537    -221.590
  C      202.539    -192.390    -220.789
  O      202.178    -192.788    -219.460
  C      201.447    -192.871    -221.728
  O      200.962    -194.160    -221.366
  C      200.430    -191.743    -221.575
  N      197.093    -194.495    -224.182
  C      197.792    -194.812    -223.033
  N      197.615    -196.059    -222.545
  N      198.593    -193.983    -222.419
  C      198.649    -192.757    -223.001
  C      197.999    -192.324    -224.133
  C      197.161    -193.273    -224.834
  O      196.587    -193.083    -225.906
  N      198.294    -191.012    -224.401
  C      199.123    -190.654    -223.442
  N      199.406    -191.693    -222.593
  O      203.693    -190.049    -225.499
  O      203.662    -188.081    -223.875
  H      201.679    -194.798    -221.545
  H      203.182    -189.369    -225.980
  H      196.505    -195.178    -224.623
  H      199.564    -189.670    -223.337
  H      199.929    -191.808    -220.598
  H      201.845    -192.924    -222.748
  H      196.986    -196.736    -222.946
  H      203.518    -192.808    -221.046
  H      198.102    -196.305    -221.689
  H      202.397    -190.403    -219.904
  H      203.567    -189.135    -221.547
  H      204.575    -190.567    -221.232
  P      203.187    -193.803    -218.728
  C      204.387    -192.028    -217.246
  O      204.469    -192.930    -218.333
  O      203.709    -194.729    -219.920
  O      202.562    -194.587    -217.623
  H      204.004    -195.593    -219.579
  H      203.462    -192.153    -216.675
  H      204.435    -191.006    -217.626
  H      205.237    -192.199    -216.581
  H      207.323    -190.859    -224.559
  H      205.937    -191.022    -225.610
  H      205.893    -191.690    -223.996

 3  4  5  6  7  8  9  10  11  12  23  26  30  31  33  0
 6-311+G(2d,p)
 ****
 35  36  37  38 0
 6-311+G(2d,p)
 ****
 1  2  13  14  15  16  17  18  19  20  21  22  24  25  27  28  29 0
 3-21G
 ****
 32  34  39  40  41  42  43  44  45  46  47  48  49 0
 3-21G
 ****


