%nproc=1
%NoSave
%Mem=1900MB
#P OB98/GEN NMR

erre ene a

0 1
  C     -633.359     747.695    -111.485
  O     -634.373     746.897    -112.103
  P     -634.658     747.166    -113.667
  C     -636.849     748.376    -112.946
  O     -635.675     748.399    -113.765
  C     -637.909     749.312    -113.509
  O     -638.369     748.879    -114.811
  C     -639.178     749.411    -112.654
  O     -639.016     750.269    -111.538
  C     -640.162     749.980    -113.652
  O     -640.021     751.422    -113.725
  C     -639.712     749.341    -114.982
  N     -643.826     747.891    -117.574
  C     -643.283     749.153    -117.411
  N     -643.920     750.161    -118.030
  N     -642.226     749.399    -116.690
  C     -641.690     748.281    -116.139
  C     -642.126     746.975    -116.228
  C     -643.311     746.722    -117.012
  O     -643.855     745.630    -117.168
  N     -641.302     746.121    -115.548
  C     -640.376     746.892    -115.053
  N     -640.543     748.214    -115.386
  O     -635.548     745.915    -114.095
  O     -633.412     747.281    -114.492
  H     -639.087     751.613    -113.555
  H     -635.431     745.726    -115.049
  H     -644.652     747.751    -118.152
  H     -639.525     746.553    -114.462
  H     -639.711     750.069    -115.802
  H     -641.210     749.788    -113.388
  H     -644.697     750.041    -118.687
  H     -639.515     748.398    -112.339
  H     -643.518     751.094    -117.960
  H     -637.480     750.319    -113.612
  H     -636.592     748.690    -111.918
  H     -637.208     747.346    -112.872
  P     -638.748     749.588    -110.108
  C     -641.245     749.309    -109.352
  O     -640.060     748.684    -109.835
  O     -638.941     750.815    -109.112
  O     -637.443     748.927    -109.967
  H     -638.409     750.660    -108.279
  H     -641.433     750.248    -109.862
  H     -641.139     749.457    -108.268
  H     -642.070     748.625    -109.523
  H     -633.268     747.421    -110.455
  H     -633.626     748.729    -111.557
  H     -632.425     747.532    -111.981

 3  4  5  6  7  8  9  10  11  12  23  26  30  31  33  0
 6-311+G(2d,p)
 ****
 35  36  37  38 0
 6-311+G(2d,p)
 ****
 1  2  13  14  15  16  17  18  19  20  21  22  24  25  27  28  29 0
 3-21G
 ****
 32  34  39  40  41  42  43  44  45  46  47  48  49 0
 3-21G
 ****


