%nproc=1
%NoSave
%Mem=1900MB
#P OB98/GEN NMR

erre ene a

0 1
  C      144.238    -194.897    -108.516
  O      144.091    -195.065    -107.117
  P      144.906    -196.202    -106.329
  C      147.245    -195.176    -106.728
  O      146.348    -196.237    -107.028
  C      148.514    -195.735    -106.092
  O      148.309    -195.916    -104.678
  C      148.942    -197.096    -106.628
  O      149.553    -196.975    -107.902
  C      149.855    -197.573    -105.505
  O      151.150    -196.963    -105.618
  C      149.131    -197.031    -104.254
  N      148.331    -198.046    -103.577
  C      148.975    -198.782    -102.579
  O      150.150    -198.566    -102.290
  N      148.257    -199.732    -101.895
  C      147.013    -199.946    -102.197
  N      146.331    -200.849    -101.442
  C      146.313    -199.231    -103.280
  C      147.021    -198.302    -103.918
  O      144.220    -197.522    -106.249
  O      145.227    -195.554    -104.907
  H      151.694    -197.556    -106.172
  H      144.518    -195.704    -104.234
  H      145.279    -199.454    -103.503
  H      146.575    -197.720    -104.712
  H      149.857    -196.621    -103.544
  H      149.997    -198.659    -105.488
  H      148.077    -197.764    -106.708
  H      149.320    -195.000    -106.230
  H      146.798    -201.183    -100.606
  H      146.757    -194.499    -106.018
  H      145.320    -200.863    -101.419
  H      147.471    -194.623    -107.644
  P      149.444    -198.226    -108.898
  C      147.245    -197.203    -109.817
  O      147.889    -198.346    -109.285
  O      149.717    -199.480    -107.945
  O      150.387    -198.179    -110.054
  H      150.632    -199.797    -108.054
  H      146.285    -197.511    -110.238
  H      147.848    -196.750    -110.607
  H      147.062    -196.474    -109.021
  H      143.614    -194.093    -108.846
  H      143.952    -195.799    -109.016
  H      145.259    -194.672    -108.743

 3  4  5  6  7  8  9  10  11  12  13  23  27  28  29  30  32 0
 6-311+G(2d,p)
 ****
 34  35 0
 6-311+G(2d,p)
 ****
 1  2  14  15  16  17  18  19  20  21  22  24  25  26 0
 3-21G
 ****
 31  33  36  37  38  39  40  41  42  43  44  45  46 0
 3-21G
 ****


