%nproc=1
%NoSave
%Mem=1900MB
#P OB98/GEN NMR

erre ene a

0 1
  C     -537.296     368.907    -899.521
  O     -537.097     368.799    -898.121
  P     -538.362     368.495    -897.181
  C     -537.748     366.144    -896.261
  O     -538.605     366.903    -897.131
  C     -536.977     365.075    -897.051
  O     -536.048     365.727    -897.951
  C     -536.113     364.128    -896.201
  O     -536.731     362.939    -895.721
  C     -535.054     363.693    -897.221
  O     -535.573     362.609    -898.031
  C     -534.866     364.920    -898.081
  N     -529.715     365.072    -898.111
  C     -530.597     364.154    -898.571
  N     -531.955     364.181    -898.541
  C     -532.373     365.314    -897.961
  C     -531.599     366.342    -897.451
  C     -530.209     366.181    -897.531
  N     -529.303     367.107    -897.071
  N     -532.406     367.372    -896.891
  C     -533.627     366.927    -897.091
  N     -533.685     365.714    -897.711
  O     -539.586     369.329    -897.421
  O     -537.770     368.795    -895.711
  H     -535.645     361.843    -897.441
  H     -538.495     369.210    -895.161
  H     -530.176     363.272    -899.071
  H     -534.505     367.474    -896.771
  H     -534.741     364.662    -899.161
  H     -534.156     363.320    -896.731
  H     -535.650     364.692    -895.381
  H     -537.693     364.503    -897.671
  H     -538.356     365.676    -895.501
  H     -528.320     366.906    -897.131
  H     -529.640     367.923    -896.551
  H     -537.066     366.867    -895.741
  P     -537.819     362.992    -894.501
  C     -539.692     361.303    -895.191
  O     -539.222     362.640    -895.191
  O     -537.824     364.269    -893.711
  O     -537.456     361.683    -893.671
  H     -537.669     360.860    -894.131
  H     -540.752     361.311    -895.501
  H     -539.608     360.837    -894.221
  H     -539.105     360.697    -895.911
  H     -536.361     369.110    -900.000
  H     -537.981     369.704    -899.724
  H     -537.697     367.989    -899.897

 3  4  5  6  7  8  9  10  11  12  22  25  29  30  31  32 0
 6-311+G(2d,p)
 ****
 33  36  37 0
 6-311+G(2d,p)
 ****
 1  2  13  14  15  16  17  18  19  20  21  23  24  26 0
 3-21G
 ****
 27  28  34  35  38  39  40  41  42  43  44  45  46  47  48 0
 3-21G
 ****


