%nproc=1
%NoSave
%Mem=1900MB
#P OB98/GEN NMR

erre ene a

0 1
  C      -51.237     389.421    -565.385
  O      -50.718     388.172    -564.914
  P      -49.891     388.178    -563.537
  C      -51.681     386.672    -562.401
  O      -50.908     387.865    -562.329
  C      -52.455     386.432    -561.094
  O      -51.536     386.384    -559.959
  C      -53.490     387.518    -560.775
  O      -54.562     386.920    -560.047
  C      -52.727     388.443    -559.853
  O      -53.607     389.287    -559.101
  C      -51.928     387.426    -559.040
  N      -50.392     390.713    -555.534
  C      -51.665     390.387    -555.955
  N      -52.687     391.004    -555.310
  N      -51.928     389.534    -556.907
  C      -50.811     388.964    -557.423
  C      -49.493     389.212    -557.107
  C      -49.227     390.183    -556.058
  O      -48.116     390.521    -555.666
  N      -48.636     388.456    -557.879
  C      -49.439     387.770    -558.665
  N      -50.761     388.016    -558.408
  O      -49.549     389.729    -563.340
  O      -48.655     387.344    -563.570
  H      -54.263     389.655    -559.732
  H      -48.595     389.869    -563.495
  H      -50.254     391.391    -554.796
  H      -49.119     387.085    -559.431
  H      -52.527     386.968    -558.238
  H      -52.052     389.088    -560.438
  H      -52.568     391.633    -554.532
  H      -53.891     388.032    -561.649
  H      -53.627     390.758    -555.568
  H      -52.948     385.451    -561.156
  H      -51.036     385.814    -562.604
  H      -52.362     386.744    -563.253
  P      -55.761     386.288    -560.900
  C      -55.245     383.957    -559.888
  O      -55.426     384.728    -561.060
  O      -55.527     386.871    -562.365
  O      -57.133     386.607    -560.374
  H      -56.360     386.891    -562.858
  H      -56.139     383.352    -559.715
  H      -55.056     384.575    -559.006
  H      -54.388     383.281    -560.033
  H      -51.761     389.265    -566.305
  H      -50.430     390.105    -565.545
  H      -51.908     389.826    -564.656

 3  4  5  6  7  8  9  10  11  12  23  26  30  31 0
 6-311+G(2d,p)
 ****
 33  35  36  37  38 0
 6-311+G(2d,p)
 ****
 1  2  13  14  15  16  17  18  19  20  21  22  24  25 0
 3-21G
 ****
 27  28  29  32  34  39  40  41  42  43  44  45  46  47  48  49 0
 3-21G
 ****


