%nproc=1
%NoSave
%Mem=1900MB
#P OB98/GEN NMR

erre ene a

0 1
  C      -36.032    -303.278     234.088
  O      -34.906    -303.937     233.530
  H      -35.811    -303.037     235.128
  H      -36.903    -303.938     234.054
  H      -36.241    -302.357     233.544
  P      -35.031    -304.368     231.989
  C      -37.029    -305.947     232.535
  O      -36.548    -304.846     231.778
  C      -38.510    -306.220     232.203
  O      -38.674    -306.159     230.745
  C      -39.006    -307.608     232.650
  O      -40.412    -307.499     232.924
  C      -38.780    -308.435     231.392
  O      -39.466    -309.669     231.473
  C      -39.240    -307.428     230.349
  N      -40.148    -310.380     226.261
  C      -40.798    -310.243     227.439
  N      -40.511    -309.423     228.475
  C      -39.421    -308.683     228.195
  C      -38.655    -308.701     227.039
  C      -39.054    -309.614     226.036
  N      -38.383    -309.750     224.844
  N      -37.609    -307.794     227.134
  C      -37.743    -307.243     228.319
  N      -38.819    -307.745     228.998
  O      -34.185    -305.728     231.916
  O      -34.540    -303.363     230.999
  H      -39.215    -310.246     230.720
  H      -33.273    -305.538     231.622
  H      -41.683    -310.881     227.568
  H      -37.103    -306.477     228.734
  H      -40.332    -307.312     230.333
  H      -37.722    -308.672     231.268
  H      -38.490    -307.983     233.539
  H      -39.121    -305.415     232.623
  H      -36.930    -305.706     233.603
  H      -36.439    -306.848     232.308
  H      -38.724    -310.438     224.189
  H      -37.555    -309.195     224.672
  P      -40.938    -307.621     234.435
  C      -41.483    -310.177     234.483
  O      -40.665    -309.114     234.960
  O      -42.528    -307.617     234.246
  O      -40.510    -306.522     235.364
  H      -42.944    -307.256     235.041
  H      -41.168    -311.097     234.930
  H      -41.392    -310.247     233.419
  H      -42.503    -309.986     234.742

 6  7  8  9  10  11  12  13  14  15  25  28  32  33  34  35 0
 6-311+G(2d,p)
 ****
 36  37  40 0
 6-311+G(2d,p)
 ****
 1  2  3  4  5  16  17  18  19  20  21  22  23  24 0
 3-21G
 ****
 26  27  29  30  31  38  39 41  42  43  44  45  46  47  48 0
 3-21G
 ****


