%nproc=1
%NoSave
%Mem=1900MB
#P OB98/GEN NMR

erre ene a

0 1
  C      -95.737    -154.816    -892.830
  O      -95.405    -153.468    -893.100
  H      -95.253    -155.118    -891.910
  H      -95.357    -155.450    -893.650
  H      -96.817    -154.955    -892.730
  P      -96.309    -152.696    -894.180
  C      -94.244    -152.440    -895.730
  O      -95.307    -151.786    -895.050
  C      -93.367    -151.393    -896.460
  O      -94.076    -150.952    -897.680
  C      -93.048    -150.143    -895.610
  O      -91.697    -149.715    -895.920
  C      -94.000    -149.108    -896.170
  O      -93.558    -147.784    -895.950
  C      -94.045    -149.523    -897.650
  N      -95.834    -145.218    -899.520
  C      -94.568    -145.532    -899.080
  N      -93.646    -144.550    -899.050
  N      -94.233    -146.732    -898.670
  C      -95.249    -147.629    -898.740
  C      -96.540    -147.449    -899.180
  C      -96.904    -146.106    -899.610
  O      -98.010    -145.757    -900.000
  N      -97.285    -148.588    -899.060
  C      -96.428    -149.484    -898.530
  N      -95.207    -148.937    -898.320
  O      -97.101    -151.620    -893.280
  O      -97.237    -153.555    -894.970
  H      -92.586    -147.740    -896.110
  H      -97.960    -151.997    -893.030
  H      -96.037    -144.272    -899.810
  H      -96.701    -150.511    -898.270
  H      -93.141    -149.176    -898.210
  H      -94.991    -149.234    -895.700
  H      -93.806    -143.600    -899.380
  H      -93.141    -150.289    -894.550
  H      -92.715    -144.782    -898.750
  H      -92.433    -151.908    -896.800
  H      -94.662    -153.133    -896.470
  H      -93.634    -153.000    -895.020
  P      -90.487    -150.551    -895.300
  C      -90.086    -148.786    -893.420
  O      -89.527    -149.533    -894.510
  O      -89.604    -150.940    -896.580
  O      -90.924    -151.778    -894.540
  H      -89.191    -151.823    -896.440
  H      -89.332    -148.156    -892.996
  H      -90.448    -149.461    -892.673
  H      -90.894    -148.183    -893.778

 6  7  8  9  10  11  12  13  14  15  26  29  33  34 0
 6-311+G(2d,p)
 ****
 36  38  39  40  41 0
 6-311+G(2d,p)
 ****
 1  2  3  4  5  16  17  18  19  20  21  22  23  24  25 0
 3-21G
 ****
 27  28  30  31  32  35  37  42  43  44  45  46  47 0
 3-21G
 ****
 48  49 0
 3-21G
 ****


