%nproc=1
%NoSave
%Mem=1900MB
#P OB98/GEN NMR

erre ene a

0 1
  C     -206.125     480.078     402.088
  O     -206.154     481.350     402.716
  P     -204.797     482.131     403.062
  C     -204.550     480.988     405.421
  O     -204.644     482.173     404.647
  C     -204.057     481.345     406.827
  O     -202.679     481.783     406.775
  C     -204.884     482.471     407.438
  O     -205.928     481.942     408.254
  C     -203.855     483.258     408.223
  O     -203.595     482.629     409.492
  C     -202.611     483.140     407.314
  N     -202.493     484.070     406.170
  C     -202.015     485.364     406.384
  O     -201.664     485.782     407.481
  N     -201.997     486.183     405.282
  C     -202.354     485.813     404.014
  O     -202.564     486.600     403.099
  C     -202.577     484.385     403.805
  C     -202.658     483.594     404.878
  O     -205.157     483.644     402.684
  O     -203.578     481.640     402.354
  H     -204.398     482.740     410.046
  H     -204.798     483.871     401.805
  H     -201.795     487.154     405.456
  H     -202.721     484.020     402.789
  H     -202.863     482.531     404.752
  H     -201.683     483.218     407.888
  H     -204.214     484.261     408.448
  H     -205.299     483.120     406.660
  H     -204.099     480.445     407.459
  H     -203.866     480.288     404.939
  H     -205.530     480.503     405.472
  P     -207.429     482.461     408.056
  C     -206.813     484.726     409.084
  O     -207.628     483.580     409.186
  O     -208.473     481.397     408.010
  O     -207.348     483.295     406.694
  H     -207.665     482.733     405.940
  H     -207.168     485.475     409.794
  H     -206.851     485.148     408.075
  H     -205.780     484.468     409.344
  H     -207.126     479.728     401.944
  H     -205.591     479.387     402.706
  H     -205.636     480.159     401.140

 3  4  5  6  7  8  9  10  11  12  13  23  28  29  30  31  32 0
 6-311+G(2d,p)
 ****
 33  34 0
 6-311+G(2d,p)
 ****
 1  2  14  15  16  17  18  19  20  21  22  24  25  26  27 0
 3-21G
 ****
 35  36  37  38  39  40  41  42  43  44  45 0
 3-21G
 ****


