%nproc=1
%NoSave
%Mem=1900MB
#P OB98/GEN NMR

erre ene a

0 1
  C      189.453    -700.815    -104.845
  O      188.667    -701.347    -105.908
  P      189.183    -701.148    -107.413
  C      189.787    -703.699    -107.794
  O      189.102    -702.536    -108.202
  C      189.089    -704.934    -108.385
  O      187.849    -705.185    -107.695
  C      188.752    -704.779    -109.870
  O      189.840    -705.162    -110.701
  C      187.539    -705.682    -110.016
  O      187.941    -707.068    -110.063
  C      186.796    -705.383    -108.689
  N      185.876    -704.222    -108.650
  C      184.630    -704.306    -109.259
  O      184.210    -705.303    -109.862
  N      183.833    -703.190    -109.160
  C      184.076    -702.098    -108.387
  O      183.302    -701.152    -108.292
  C      185.334    -702.129    -107.636
  C      186.171    -703.160    -107.809
  O      190.749    -700.897    -107.246
  O      188.508    -700.031    -108.153
  H      187.134    -707.587    -110.195
  H      190.985    -699.996    -107.537
  H      182.960    -703.209    -109.659
  H      185.552    -701.302    -106.976
  H      187.106    -703.187    -107.256
  H      186.208    -706.265    -108.370
  H      187.003    -705.486    -110.936
  H      188.442    -703.758    -110.089
  H      189.736    -705.811    -108.238
  H      189.820    -703.778    -106.707
  H      190.823    -703.650    -108.139
  P      189.997    -704.522    -112.159
  C      192.138    -703.147    -111.830
  O      191.570    -704.324    -112.373
  O      189.140    -703.336    -112.441
  O      189.662    -705.742    -113.145
  H      188.724    -705.724    -113.430
  H      193.216    -703.207    -111.901
  H      191.850    -703.043    -110.769
  H      191.784    -702.274    -112.385
  H      188.979    -701.028    -103.910
  H      189.545    -699.756    -104.965
  H      190.425    -701.262    -104.862

 3  4  5  6  7  8  9  10  11  12  13  23  28  29  30  31  32 0
 6-311+G(2d,p)
 ****
 33  34 0
 6-311+G(2d,p)
 ****
 1  2  14  15  16  17  18  19  20  21  22  24  25  26  27 0
 3-21G
 ****
 35  36  37  38  39  40  41  42  43  44  45 0
 3-21G
 ****


