%nproc=1
%NoSave
%Mem=1900MB
#P OB98/GEN NMR

erre ene a

0 1
  C     -260.554      41.360      44.032
  O     -261.789      41.306      44.715
  H     -259.773      41.653      44.737
  H     -260.596      42.099      43.227
  H     -260.309      40.377      43.622
  P     -263.092      40.992      43.836
  C     -264.294      43.203      44.487
  O     -263.743      42.405      43.447
  C     -265.065      44.371      43.879
  O     -264.139      45.326      43.309
  C     -265.992      43.976      42.738
  O     -267.210      43.408      43.191
  C     -266.197      45.317      42.057
  O     -267.241      46.077      42.684
  C     -264.828      45.999      42.236
  N     -264.054      45.995      40.997
  C     -264.470      46.900      40.025
  O     -265.420      47.665      40.174
  N     -263.774      46.870      38.847
  C     -262.764      46.009      38.537
  O     -262.219      45.999      37.439
  C     -262.379      45.064      39.596
  C     -263.034      45.095      40.760
  O     -264.115      40.382      44.904
  O     -262.866      40.068      42.685
  H     -264.196      39.419      44.771
  H     -267.245      46.947      42.238
  H     -264.058      47.520      38.130
  H     -261.581      44.364      39.383
  H     -262.777      44.401      41.554
  H     -264.958      47.041      42.554
  H     -266.475      45.187      41.014
  H     -265.475      43.301      42.046
  H     -265.628      44.871      44.678
  H     -263.489      43.598      45.114
  H     -264.948      42.580      45.105
  P     -268.184      42.754      42.096
  C     -269.796      44.788      42.530
  O     -269.139      43.941      41.599
  O     -269.110      41.847      43.031
  O     -267.451      42.020      41.024
  H     -269.172      42.204      43.934
  H     -270.382      45.511      42.002
  H     -269.067      45.290      43.132
  H     -270.434      44.201      43.158

 6  7  8  9  10  11  12  13  14  15  16  27  31  32  33  34  35 0
 6-311+G(2d,p)
 ****
 36  37 0
 6-311+G(2d,p)
 ****
 1  2  3  4  5  17  18  19  20  21  22  23  24  25 0
 3-21G
 ****
 26  28  29  30  38  39  40  41  42  43  44  45 0
 3-21G
 ****


