%nproc=1
%NoSave
%Mem=1900MB
#P OB98/GEN NMR

erre ene a

0 1
  C      674.842    -107.177     694.877
  O      673.975    -108.190     694.395
  H      674.316    -106.213     694.827
  H      675.743    -107.107     694.262
  H      675.111    -107.373     695.918
  P      674.566    -109.667     694.222
  C      672.410    -110.405     695.446
  O      673.310    -110.650     694.374
  C      671.052    -111.035     695.145
  O      671.182    -112.461     694.995
  C      670.035    -110.822     696.253
  O      669.527    -109.503     696.236
  C      669.027    -111.913     695.935
  O      668.152    -111.520     694.874
  C      669.959    -113.064     695.480
  N      670.233    -114.025     696.545
  C      669.237    -114.978     696.782
  O      668.203    -114.979     696.116
  N      669.436    -115.887     697.804
  C      670.530    -115.861     698.494
  N      670.661    -116.785     699.478
  C      671.610    -114.877     698.264
  C      671.396    -113.999     697.285
  O      675.743    -110.032     695.081
  O      674.912    -109.759     692.661
  H      667.729    -112.343     694.556
  H      675.824    -109.456     692.496
  H      672.505    -114.895     698.865
  H      672.144    -113.245     697.050
  H      669.515    -113.604     694.633
  H      668.420    -112.164     696.799
  H      670.481    -111.050     697.230
  H      670.684    -110.633     694.194
  H      669.888    -117.430     699.610
  H      672.308    -109.322     695.536
  H      671.499    -116.913     700.028
  H      672.806    -110.801     696.388
  P      669.963    -108.444     697.354
  C      669.057    -106.785     695.595
  O      669.184    -107.091     696.982
  O      671.440    -108.297     697.553
  O      669.188    -108.957     698.663
  H      669.615    -109.761     699.041
  H      668.522    -105.865     695.480
  H      668.523    -107.572     695.104
  H      670.030    -106.688     695.160

 6  7  8  9  10  11  12  13  14  15  16  26  30  31  32  33  35 0
 6-311+G(2d,p)
 ****
 37  38 0
 6-311+G(2d,p)
 ****
 1  2  3  4  5  17  18  19  20  21  22  23  24  25 0
 3-21G
 ****
 27  28  29  34  36  39  40  41  42  43  44  45  46 0
 3-21G
 ****


