%nproc=1
%NoSave
%Mem=1900MB
#P OB98/GEN NMR

erre ene a

0 1
  C      136.831     -33.419     136.732
  O      137.707     -32.474     136.151
  H      136.955     -34.375     136.216
  H      135.791     -33.097     136.625
  H      137.070     -33.560     137.789
  P      137.661     -30.964     136.679
  C      136.344     -29.813     134.773
  O      137.615     -30.030     135.377
  C      136.491     -28.988     133.496
  O      135.196     -28.705     132.930
  C      137.159     -27.634     133.703
  O      138.552     -27.786     133.882
  C      136.738     -26.918     132.430
  O      137.542     -27.334     131.316
  C      135.281     -27.421     132.268
  N      134.285     -26.496     132.800
  C      133.912     -25.443     131.958
  O      134.426     -25.325     130.846
  N      132.978     -24.542     132.410
  C      132.433     -24.702     133.574
  N      131.513     -23.778     133.962
  C      132.773     -25.817     134.478
  C      133.704     -26.661     134.038
  O      138.709     -30.580     137.678
  O      136.187     -30.812     137.286
  H      137.013     -27.147     130.514
  H      136.191     -30.992     138.244
  H      132.286     -25.917     135.438
  H      134.012     -27.509     134.642
  H      135.052     -27.595     131.209
  H      136.837     -25.836     132.510
  H      136.707     -27.114     134.556
  H      137.046     -29.592     132.766
  H      131.296     -23.042     133.298
  H      135.729     -29.273     135.501
  H      130.911     -23.890     134.765
  H      135.854     -30.768     134.550
  P      139.251     -27.515     135.301
  C      139.889     -25.076     134.793
  O      140.365     -26.393     135.029
  O      139.742     -28.732     136.009
  O      138.140     -26.706     136.119
  H      137.437     -27.322     136.450
  H      140.719     -24.421     134.626
  H      139.335     -24.739     135.644
  H      139.255     -25.075     133.931

 6  7  8  9  10  11  12  13  14  15  16  26  30  31  32  33  35 0
 6-311+G(2d,p)
 ****
 37  38 0
 6-311+G(2d,p)
 ****
 1  2  3  4  5  17  18  19  20  21  22  23  24  25 0
 3-21G
 ****
 27  28  29  34  36  39  40  41  42  43  44  45  46 0
 3-21G
 ****


