%nproc=1
%NoSave
%Mem=1900MB
#P OB98/GEN NMR

erre ene a

0 1
  C      -74.711     -44.337     199.442
  O      -75.764     -45.209     199.084
  H      -74.602     -44.347     200.529
  H      -74.937     -43.317     199.118
  H      -73.775     -44.673     198.987
  P      -76.162     -45.250     197.527
  C      -78.303     -43.914     198.185
  O      -77.152     -43.994     197.358
  C      -78.444     -42.502     198.747
  O      -77.162     -41.998     199.183
  C      -78.963     -41.471     197.748
  O      -80.363     -41.546     197.538
  C      -78.567     -40.193     198.466
  O      -79.462     -39.960     199.568
  C      -77.152     -40.561     198.960
  N      -76.099     -40.194     198.010
  C      -75.632     -38.876     198.069
  O      -76.096     -38.080     198.882
  N      -74.668     -38.477     197.173
  C      -74.194     -39.322     196.311
  N      -73.243     -38.867     195.451
  C      -74.646     -40.721     196.223
  C      -75.588     -41.087     197.090
  O      -77.160     -46.498     197.433
  O      -75.026     -45.291     196.561
  H      -79.074     -39.237     200.095
  H      -77.581     -46.525     196.538
  H      -74.231     -41.386     195.478
  H      -75.970     -42.101     197.086
  H      -76.936     -40.082     199.923
  H      -78.612     -39.309     197.830
  H      -78.422     -41.525     196.797
  H      -79.090     -42.559     199.632
  H      -72.997     -37.887     195.497
  H      -78.192     -44.635     199.001
  H      -72.924     -39.401     194.652
  H      -79.198     -44.164     197.606
  P      -80.864     -41.997     196.080
  C      -82.809     -40.271     195.942
  O      -81.565     -40.719     195.415
  O      -82.092     -42.968     196.403
  O      -79.825     -42.667     195.236
  H      -82.149     -43.687     195.744
  H      -83.142     -39.415     195.393
  H      -82.686     -40.008     196.972
  H      -83.534     -41.053     195.858

 6  7  8  9  10  11  12  13  14  15  16  26  30  31  32  33  35 0
 6-311+G(2d,p)
 ****
 37  38 0
 6-311+G(2d,p)
 ****
 1  2  3  4  5  17  18  19  20  21  22  23  24  25 0
 3-21G
 ****
 27  28  29  34  36  39  40  41  42  43  44  45  46 0
 3-21G
 ****


