%nproc=1
%NoSave
%Mem=1900MB
#P OB98/GEN NMR

erre ene a

0 1
  C     -419.872    -916.948     -83.323
  O     -421.267    -916.740     -83.605
  P     -422.228    -916.203     -82.433
  C     -423.595    -918.406     -82.150
  O     -423.614    -917.016     -82.423
  C     -424.488    -919.190     -83.131
  O     -425.793    -918.535     -83.256
  C     -423.925    -919.312     -84.556
  O     -424.364    -920.565     -85.089
  C     -424.610    -918.167     -85.285
  O     -424.602    -918.322     -86.706
  C     -426.005    -918.232     -84.642
  N     -426.791    -917.008     -84.810
  C     -427.844    -917.033     -85.731
  O     -428.096    -917.995     -86.482
  N     -428.590    -915.887     -85.818
  C     -428.373    -914.725     -85.116
  O     -429.045    -913.719     -85.260
  C     -427.227    -914.769     -84.169
  C     -426.509    -915.893     -84.070
  O     -422.685    -914.770     -83.014
  O     -421.591    -916.038     -81.091
  H     -424.946    -919.201     -86.903
  H     -422.615    -914.092     -82.301
  H     -429.343    -915.878     -86.485
  H     -427.042    -913.869     -83.593
  H     -425.702    -915.938     -83.364
  H     -426.554    -919.089     -85.068
  H     -424.092    -917.229     -85.053
  H     -422.830    -919.236     -84.583
  H     -424.674    -920.182     -82.720
  H     -423.952    -918.594     -81.136
  H     -422.557    -918.777     -82.229
  P     -423.689    -921.921     -84.517
  C     -422.787    -923.101     -86.670
  O     -423.795    -923.014     -85.680
  O     -424.819    -922.372     -83.463
  O     -422.349    -921.723     -83.891
  H     -425.719    -922.312     -83.832
  H     -421.790    -922.982     -86.232
  H     -422.943    -922.350     -87.436
  H     -422.856    -924.096     -87.126
  H     -419.379    -917.304     -84.204
  H     -419.770    -917.671     -82.541
  H     -419.429    -916.024     -83.015

 3  4  5  6  7  8  9  10  11  12  13  23  28  29  30  31  32 0
 6-311+G(2d,p)
 ****
 33  34 0
 6-311+G(2d,p)
 ****
 1  2  14  15  16  17  18  19  20  21  22  24  25  26 0
 3-21G
 ****
 27  35  36  37  38  39  40  41  42  43  44  45 0
 3-21G
 ****


