%nproc=1
%NoSave
%Mem=1900MB
#P OB98/GEN NMR

erre ene a

0 1
  C       73.605      62.768    -100.641
  O       74.380      63.564    -101.514
  H       72.619      62.617    -101.086
  H       73.480      63.275     -99.681
  H       74.072      61.791    -100.487
  P       75.937      63.769    -101.197
  C       78.035      62.286    -101.414
  O       76.621      62.321    -101.273
  C       78.591      61.021    -100.767
  O       78.343      61.038     -99.346
  C       77.960      59.732    -101.282
  O       78.464      59.397    -102.561
  C       78.342      58.766    -100.169
  O       79.699      58.320    -100.323
  C       78.196      59.666     -98.918
  N       76.928      59.470     -98.215
  C       76.804      58.298     -97.476
  O       77.682      57.436     -97.432
  N       75.623      58.138     -96.801
  C       74.549      58.978     -96.860
  O       73.490      58.762     -96.276
  C       74.723      60.182     -97.683
  C       75.886      60.370     -98.312
  O       76.251      64.547     -99.962
  O       76.495      64.498    -102.509
  H       80.224      59.105    -100.571
  H       76.582      65.454    -102.343
  H       75.511      57.289     -96.271
  H       73.890      60.868     -97.758
  H       76.031      61.252     -98.928
  H       79.011      59.468     -98.212
  H       77.717      57.874    -100.153
  H       76.869      59.826    -101.304
  H       79.679      61.008    -100.919
  H       78.461      63.166    -100.919
  H       78.286      62.319    -102.479
  P       77.596      58.522    -103.579
  C       75.293      58.803    -104.664
  O       76.083      59.059    -103.510
  O       77.738      57.044    -103.432
  O       78.086      59.008    -105.023
  H       78.651      58.321    -105.429
  H       74.309      59.198    -104.518
  H       75.233      57.747    -104.828
  H       75.742      59.271    -105.515

 6  7  8  9  10  11  12  13  14  15  16  26  31  32  33  34  35 0
 6-311+G(2d,p)
 ****
 36  37 0
 6-311+G(2d,p)
 ****
 1  2  3  4  5  17  18  19  20  21  22  23  24  25 0
 3-21G
 ****
 27  28  29  30  38  39  40  41  42  43  44  45 0
 3-21G
 ****


