%nproc=1
%NoSave
%Mem=1900MB
#P OB98/GEN NMR

erre ene a

0 1
  C       49.915     -39.470    -120.089
  O       49.299     -40.113    -118.990
  H       49.220     -39.472    -120.931
  H       50.816     -40.018    -120.375
  H       50.168     -38.436    -119.843
  P       50.003     -39.934    -117.559
  C       49.125     -37.504    -117.309
  O       50.256     -38.359    -117.370
  C       49.069     -36.798    -115.958
  O       50.213     -35.931    -115.795
  C       47.836     -35.923    -115.757
  O       46.718     -36.686    -115.323
  C       48.325     -34.996    -114.656
  O       48.293     -35.688    -113.389
  C       49.779     -34.742    -115.076
  N       50.908     -29.800    -115.198
  C       50.744     -30.644    -114.117
  N       50.893     -30.090    -112.895
  N       50.454     -31.915    -114.222
  C       50.309     -32.325    -115.504
  C       50.440     -31.583    -116.657
  C       50.777     -30.185    -116.526
  O       50.943     -29.396    -117.453
  N       50.219     -32.345    -117.775
  C       49.933     -33.539    -117.299
  N       49.971     -33.580    -115.926
  O       51.470     -40.528    -117.810
  O       49.324     -40.625    -116.425
  H       47.361     -35.910    -113.208
  H       51.516     -41.424    -117.427
  H       51.121     -28.827    -115.061
  H       49.700     -34.407    -117.901
  H       50.445     -34.618    -114.214
  H       47.702     -34.106    -114.546
  H       51.095     -29.115    -112.742
  H       47.604     -35.336    -116.654
  H       50.782     -30.692    -112.088
  H       49.129     -37.566    -115.176
  H       48.218     -38.102    -117.446
  H       49.194     -36.765    -118.114
  P       45.251     -36.089    -115.568
  C       44.355     -38.150    -116.861
  O       44.686     -36.769    -116.910
  O       45.555     -34.582    -116.013
  O       44.340     -36.135    -114.390
  H       45.253     -33.963    -115.320
  H       43.995     -38.465    -117.818
  H       43.596     -38.309    -116.124
  H       45.226     -38.717    -116.604

 6  7  8  9  10  11  12  13  14  15  26  29  33  34 0
 6-311+G(2d,p)
 ****
 36  38  39  40  41 0
 6-311+G(2d,p)
 ****
 1  2  3  4  5  16  17  18  19  20  21  22  23  24  25 0
 3-21G
 ****
 27  28  30  31  32  35  37  42  43  44  45  46  47 0
 3-21G
 ****
 48  49 0
 3-21G
 ****


