%nproc=1
%NoSave
%Mem=1900MB
#P OB98/GEN NMR

erre ene a

0 1
  C      118.194     -56.315     -29.203
  O      119.288     -57.153     -29.538
  P      119.695     -58.320     -28.514
  C      120.931     -56.742     -26.857
  O      119.865     -57.662     -27.057
  C      121.653     -57.028     -25.541
  O      120.782     -56.701     -24.424
  C      122.078     -58.488     -25.370
  O      123.310     -58.550     -24.639
  C      120.993     -59.075     -24.484
  O      121.450     -60.231     -23.788
  C      120.680     -57.871     -23.589
  N      118.186     -58.769     -19.281
  C      119.529     -58.495     -19.476
  N      120.323     -58.551     -18.388
  N      120.041     -58.181     -20.638
  C      119.126     -58.174     -21.647
  C      117.773     -58.413     -21.573
  C      117.221     -58.768     -20.277
  O      116.046     -59.046     -20.040
  N      117.169     -58.271     -22.797
  C      118.160     -57.989     -23.619
  N      119.370     -57.952     -22.977
  O      121.194     -58.666     -28.947
  O      118.823     -59.534     -28.573
  H      120.703     -60.557     -23.252
  H      121.213     -59.512     -29.431
  H      117.842     -59.017     -18.366
  H      118.058     -57.832     -24.684
  H      121.421     -57.768     -22.788
  H      120.124     -59.360     -25.089
  H      120.000     -58.848     -17.473
  H      122.186     -59.045     -26.309
  H      121.313     -58.398     -18.511
  H      122.526     -56.361     -25.468
  H      120.526     -55.728     -26.835
  H      121.634     -56.809     -27.692
  P      124.387     -59.629     -25.151
  C      124.011     -61.237     -23.131
  O      123.926     -61.037     -24.533
  O      125.702     -59.256     -24.321
  O      124.613     -59.609     -26.627
  H      126.501     -59.547     -24.803
  H      122.999     -61.390     -22.740
  H      124.472     -60.382     -22.619
  H      124.610     -62.129     -22.937
  H      118.048     -55.592     -29.978
  H      118.399     -55.812     -28.281
  H      117.310     -56.908     -29.097

 3  4  5  6  7  8  9  10  11  12  23  26  30  31 0
 6-311+G(2d,p)
 ****
 33  35  36  37  38 0
 6-311+G(2d,p)
 ****
 1  2  13  14  15  16  17  18  19  20  21  22  24  25 0
 3-21G
 ****
 27  28  29  32  34  39  40  41  42  43  44  45  46  47  48  49 0
 3-21G
 ****


