%nproc=1
%NoSave
%Mem=1900MB
#P OB98/GEN NMR

erre ene a

0 1
  C     -268.425     129.747     -53.291
  O     -268.013     130.519     -52.182
  H     -268.753     128.769     -52.931
  H     -267.594     129.601     -53.985
  H     -269.262     130.228     -53.805
  P     -267.478     132.010     -52.445
  C     -264.922     132.394     -52.259
  O     -265.980     131.798     -52.994
  C     -264.297     131.371     -51.313
  O     -263.913     130.168     -52.018
  C     -263.016     131.833     -50.625
  O     -263.230     132.783     -49.596
  C     -262.513     130.505     -50.089
  O     -263.284     130.126     -48.935
  C     -262.802     129.574     -51.288
  N     -261.644     129.407     -52.166
  C     -260.842     128.282     -51.938
  O     -261.110     127.492     -51.035
  N     -259.727     128.094     -52.721
  C     -259.427     128.966     -53.634
  N     -258.307     128.732     -54.376
  C     -260.231     130.174     -53.895
  C     -261.313     130.330     -53.136
  O     -267.616     132.965     -51.303
  O     -268.242     132.483     -53.769
  H     -262.938     129.265     -48.635
  H     -267.954     133.407     -53.971
  H     -259.921     130.885     -54.648
  H     -261.953     131.198     -53.263
  H     -263.133     128.586     -50.946
  H     -261.466     130.533     -49.784
  H     -262.293     132.209     -51.358
  H     -265.065     131.084     -50.583
  H     -257.776     127.896     -54.174
  H     -265.327     133.245     -51.703
  H     -257.956     129.393     -55.055
  H     -264.146     132.750     -52.942
  P     -262.051     133.842     -49.324
  C     -260.537     133.303     -47.264
  O     -260.871     133.024     -48.615
  O     -262.649     134.756     -48.159
  O     -261.620     134.635     -50.517
  H     -263.014     135.587     -48.524
  H     -259.733     132.667     -46.957
  H     -261.389     133.126     -46.642
  H     -260.237     134.326     -47.175

 6  7  8  9  10  11  12  13  14  15  16  26  30  31  32  33  35 0
 6-311+G(2d,p)
 ****
 37  38 0
 6-311+G(2d,p)
 ****
 1  2  3  4  5  17  18  19  20  21  22  23  24  25 0
 3-21G
 ****
 27  28  29  34  36  39  40  41  42  43  44  45  46 0
 3-21G
 ****


