%nproc=1
%NoSave
%Mem=1900MB
#P OB98/GEN NMR

erre ene a

0 1
  C       -2.224      -3.280    -110.107
  O       -2.213      -1.853    -110.130
  P       -2.227      -0.914    -108.839
  C       -3.783       0.985    -107.891
  O       -3.478       0.077    -108.944
  C       -5.173       1.612    -108.089
  O       -5.111       2.524    -109.234
  C       -6.251       0.569    -108.398
  O       -7.483       0.807    -107.719
  C       -6.290       0.559    -109.919
  O       -7.489       0.013    -110.450
  C       -6.008       2.023    -110.253
  N       -6.106       4.616    -114.650
  C       -6.990       4.655    -113.591
  N       -8.057       5.475    -113.721
  N       -6.859       3.935    -112.511
  C       -5.800       3.098    -112.540
  C       -4.857       2.961    -113.536
  C       -4.985       3.797    -114.711
  O       -4.217       3.820    -115.666
  N       -3.915       2.016    -113.210
  C       -4.296       1.569    -112.027
  N       -5.435       2.203    -111.574
  O       -0.919      -0.305    -108.460
  O       -2.661      -1.914    -107.648
  H       -7.550      -0.917    -110.151
  H       -2.216      -1.585    -106.841
  H       -6.245       5.211    -115.451
  H       -3.788       0.811    -111.451
  H       -6.917       2.629    -110.235
  H       -5.466      -0.080    -110.264
  H       -8.286       5.964    -114.577
  H       -5.949      -0.423    -108.039
  H       -8.810       5.334    -113.048
  H       -5.420       2.202    -107.200
  H       -3.013       1.762    -107.931
  H       -3.709       0.489    -106.924
  P       -8.169      -0.058    -106.563
  C       -9.970      -1.864    -106.342
  O       -9.201      -1.080    -107.230
  O       -9.128       0.971    -105.792
  O       -7.203      -0.686    -105.603
  H       -8.840       1.053    -104.859
  H      -10.427      -2.691    -106.902
  H      -10.763      -1.256    -105.906
  H       -9.348      -2.282    -105.545
  H       -2.210      -3.653    -111.110
  H       -3.108      -3.622    -109.611
  H       -1.361      -3.635    -109.583

 3  4  5  6  7  8  9  10  11  12  23  26  30  31 0
 6-311+G(2d,p)
 ****
 33  35  36  37  38 0
 6-311+G(2d,p)
 ****
 1  2  13  14  15  16  17  18  19  20  21  22  24  25 0
 3-21G
 ****
 27  28  29  32  34  39  40  41  42  43  44  45  46  47  48  49 0
 3-21G
 ****


