%nproc=1
%NoSave
%Mem=1900MB
#P OB98/GEN NMR

erre ene a

0 1
  C       88.434      25.966    -219.864
  O       88.465      26.851    -218.765
  H       89.094      26.355    -220.643
  H       87.417      25.906    -220.263
  H       88.778      24.970    -219.580
  P       87.849      26.369    -217.369
  C       85.465      27.237    -217.842
  O       86.286      26.102    -217.610
  C       84.297      26.882    -218.771
  O       83.654      25.679    -218.279
  C       83.232      27.984    -218.780
  O       82.513      28.025    -220.009
  C       82.290      27.549    -217.669
  O       80.978      28.095    -217.802
  C       82.343      26.029    -217.806
  N       78.832      24.719    -214.351
  C       78.739      25.622    -215.391
  N       77.551      26.257    -215.530
  N       79.725      25.895    -216.205
  C       80.871      25.241    -215.904
  C       81.094      24.341    -214.887
  C       79.985      24.021    -214.013
  O       80.020      23.247    -213.063
  N       82.391      23.891    -214.890
  C       82.952      24.520    -215.903
  N       82.064      25.331    -216.565
  O       87.838      27.702    -216.481
  O       88.588      25.259    -216.685
  H       80.380      27.554    -217.254
  H       87.818      27.479    -215.534
  H       78.035      24.525    -213.772
  H       83.986      24.411    -216.207
  H       81.615      25.682    -218.550
  H       82.693      27.905    -216.719
  H       76.844      26.221    -214.813
  H       83.645      28.970    -218.578
  H       77.563      27.126    -216.070
  H       84.671      26.654    -219.775
  H       86.098      28.001    -218.296
  H       85.097      27.640    -216.897
  P       83.085      28.928    -221.202
  C       82.048      31.254    -220.485
  O       83.179      30.450    -220.732
  O       81.903      28.931    -222.276
  O       84.371      28.434    -221.786
  H       82.187      28.485    -223.096
  H       82.364      32.231    -220.183
  H       81.460      30.813    -219.707
  H       81.462      31.329    -221.377

 6  7  8  9  10  11  12  13  14  15  26  29  33  34 0
 6-311+G(2d,p)
 ****
 36  38  39  40  41 0
 6-311+G(2d,p)
 ****
 1  2  3  4  5  16  17  18  19  20  21  22  23  24  25 0
 3-21G
 ****
 27  28  30  31  32  35  37  42  43  44  45  46  47 0
 3-21G
 ****
 48  49 0
 3-21G
 ****


