%nproc=1
%NoSave
%Mem=1900MB
#P OB98/GEN NMR

erre ene a

0 1
  C     -169.732      27.986     514.508
  O     -169.764      26.574     514.499
  H     -168.721      28.314     514.241
  H     -169.969      28.368     515.502
  H     -170.433      28.388     513.771
  P     -171.121      25.831     514.920
  C     -171.172      24.519     512.696
  O     -171.157      24.440     514.119
  C     -171.025      23.118     512.088
  O     -169.678      22.650     512.368
  C     -172.020      22.112     512.685
  O     -172.772      21.417     511.693
  C     -171.150      21.282     513.630
  O     -171.626      19.976     513.868
  C     -169.762      21.352     512.976
  N     -168.656      21.147     513.913
  C     -168.132      19.866     514.011
  O     -168.515      18.892     513.366
  N     -167.101      19.712     514.907
  C     -166.575      20.692     515.698
  O     -165.650      20.497     516.481
  C     -167.197      22.023     515.571
  C     -168.187      22.190     514.698
  O     -172.363      26.649     514.807
  O     -170.856      25.367     516.431
  H     -171.571      19.487     513.019
  H     -171.355      25.946     517.041
  H     -166.702      18.795     514.976
  H     -166.808      22.818     516.194
  H     -168.669      23.158     514.580
  H     -169.669      20.604     512.189
  H     -171.110      21.793     514.599
  H     -172.789      22.623     513.274
  H     -171.128      23.194     511.000
  H     -170.342      25.156     512.387
  H     -172.115      24.969     512.362
  P     -174.250      20.851     511.896
  C     -175.178      21.769     509.616
  O     -174.927      20.650     510.463
  O     -175.073      21.527     512.943
  O     -174.010      19.325     512.386
  H     -174.753      19.112     512.988
  H     -175.632      21.434     508.707
  H     -174.255      22.261     509.393
  H     -175.835      22.452     510.113

 6  7  8  9  10  11  12  13  14  15  16  26  31  32  33  34  35 0
 6-311+G(2d,p)
 ****
 36  37 0
 6-311+G(2d,p)
 ****
 1  2  3  4  5  17  18  19  20  21  22  23  24  25 0
 3-21G
 ****
 27  28  29  30  38  39  40  41  42  43  44  45 0
 3-21G
 ****


