%nproc=1
%NoSave
%Mem=1900MB
#P OB98/GEN NMR

erre ene a

0 1
  C     -300.858    -321.328     -13.791
  O     -300.771    -321.018     -12.407
  P     -299.840    -321.932     -11.476
  C     -300.324    -323.701      -9.597
  O     -300.825    -322.879     -10.636
  C     -301.436    -324.623      -9.073
  O     -302.405    -323.824      -8.338
  C     -302.200    -325.387     -10.165
  O     -302.539    -326.671      -9.623
  C     -303.447    -324.545     -10.354
  O     -304.517    -325.276     -10.934
  C     -303.704    -324.084      -8.912
  N     -304.551    -322.891      -8.825
  C     -305.876    -323.065      -8.427
  O     -306.380    -324.162      -8.172
  N     -306.632    -321.924      -8.366
  C     -306.223    -320.665      -8.709
  O     -306.950    -319.681      -8.645
  C     -304.831    -320.548      -9.163
  C     -304.069    -321.647      -9.190
  O     -299.322    -320.858     -10.409
  O     -298.762    -322.650     -12.222
  H     -299.992    -320.190     -10.187
  H     -304.837    -325.919     -10.275
  H     -307.590    -322.020      -8.046
  H     -304.476    -319.572      -9.461
  H     -303.037    -321.593      -9.523
  H     -304.156    -324.901      -8.333
  H     -303.219    -323.693     -11.011
  H     -301.614    -325.510     -11.081
  H     -300.987    -325.325      -8.354
  H     -299.965    -323.073      -8.776
  H     -299.481    -324.284      -9.973
  P     -302.522    -327.941     -10.618
  C     -304.474    -329.066     -11.955
  O     -303.857    -327.882     -11.501
  O     -302.832    -329.124      -9.575
  O     -301.233    -328.146     -11.355
  H     -303.584    -328.924      -8.997
  H     -305.513    -328.841     -12.228
  H     -304.474    -329.842     -11.184
  H     -303.948    -329.433     -12.846
  H     -301.513    -320.632     -14.272
  H     -301.241    -322.320     -13.911
  H     -299.885    -321.266     -14.232

 3  4  5  6  7  8  9  10  11  12  13  24  28  29  30  31  32 0
 6-311+G(2d,p)
 ****
 33  34 0
 6-311+G(2d,p)
 ****
 1  2  14  15  16  17  18  19  20  21  22  23  25  26  27 0
 3-21G
 ****
 35  36  37  38  39  40  41  42  43  44  45 0
 3-21G
 ****


