%nproc=1
%NoSave
%Mem=1900MB
#P OB98/GEN NMR

erre ene a

0 1
  C        9.335       2.755     -58.252
  O        9.136       3.981     -58.958
  P        9.268       3.905     -60.556
  C        8.370       6.213     -61.316
  O        9.511       5.396     -61.103
  C        7.915       6.891     -60.019
  O        8.953       7.775     -59.500
  C        6.647       7.737     -60.176
  O        5.915       7.626     -58.948
  C        7.195       9.145     -60.298
  O        6.196      10.125     -60.025
  C        8.341       9.068     -59.291
  N        9.125      14.022     -58.721
  C        7.968      13.283     -58.572
  N        6.870      13.953     -58.164
  N        7.897      11.997     -58.802
  C        9.084      11.452     -59.168
  C       10.297      12.076     -59.335
  C       10.356      13.505     -59.107
  O       11.354      14.206     -59.220
  N       11.280      11.179     -59.683
  C       10.634      10.030     -59.790
  N        9.316      10.132     -59.436
  O        7.778       3.560     -61.029
  O       10.252       2.885     -61.029
  H        6.631      11.004     -60.049
  H        7.702       2.610     -61.232
  H        9.120      15.013     -58.547
  H       11.076       9.096     -60.094
  H        7.985       9.117     -58.253
  H        7.577       9.317     -61.312
  H        6.869      14.930     -57.921
  H        6.014       7.452     -61.021
  H        6.019      13.425     -58.007
  H        7.747       6.111     -59.267
  H        7.548       5.611     -61.710
  H        8.600       6.954     -62.090
  P        4.557       6.779     -58.959
  C        4.555       5.809     -56.562
  O        3.998       6.746     -57.461
  O        5.067       5.278     -59.202
  O        3.578       7.185     -60.014
  H        4.449       4.815     -59.796
  H        4.447       6.190     -55.545
  H        5.615       5.632     -56.761
  H        4.012       4.863     -56.644
  H        9.223       2.926     -57.202
  H       10.319       2.385     -58.451
  H        8.611       2.036     -58.575

 3  4  5  6  7  8  9  10  11  12  23  26  30  31 0
 6-311+G(2d,p)
 ****
 33  35  36  37  38 0
 6-311+G(2d,p)
 ****
 1  2  13  14  15  16  17  18  19  20  21  22  24  25 0
 3-21G
 ****
 27  28  29  32  34  39  40  41  42  43  44  45  46  47  48  49 0
 3-21G
 ****


