%nproc=1
%NoSave
%Mem=1900MB
#P OB98/GEN NMR

erre ene a

0 1
  C      -57.739      72.297    -110.552
  O      -56.465      71.862    -111.040
  P      -55.164      72.612    -110.479
  C      -53.385      72.315    -112.360
  O      -53.864      71.900    -111.084
  C      -52.090      71.578    -112.702
  O      -52.363      70.322    -113.354
  C      -51.201      72.345    -113.669
  O      -50.503      73.374    -112.997
  C      -50.300      71.242    -114.214
  O      -49.114      71.085    -113.419
  C      -51.194      69.984    -114.126
  N      -51.557      69.458    -115.431
  C      -50.790      68.383    -115.892
  O      -49.855      67.950    -115.214
  N      -51.085      67.844    -117.119
  C      -52.042      68.350    -117.832
  N      -52.286      67.779    -119.042
  C      -52.858      69.505    -117.393
  C      -52.563      70.004    -116.193
  O      -55.132      72.191    -108.936
  O      -55.204      74.099    -110.644
  H      -48.610      71.916    -113.531
  H      -54.763      72.912    -108.397
  H      -53.640      69.897    -118.025
  H      -53.108      70.853    -115.794
  H      -50.677      69.189    -113.574
  H      -49.969      71.466    -115.232
  H      -51.808      72.764    -114.483
  H      -51.543      71.380    -111.768
  H      -51.705      66.993    -119.311
  H      -53.213      73.394    -112.363
  H      -53.002      68.098    -119.681
  H      -54.160      72.119    -113.109
  P      -50.447      74.815    -113.686
  C      -47.908      75.056    -113.386
  O      -49.183      75.549    -113.023
  O      -51.675      75.572    -112.981
  O      -50.542      74.867    -115.174
  H      -51.811      76.445    -113.392
  H      -47.149      75.762    -113.040
  H      -47.827      74.958    -114.471
  H      -47.734      74.088    -112.907
  H      -58.513      71.715    -111.007
  H      -57.880      73.329    -110.795
  H      -57.776      72.172    -109.490

 3  4  5  6  7  8  9  10  11  12  13  21  23  27  28  29  30  32 0
 6-311+G(2d,p)
 ****
 34  35 0
 6-311+G(2d,p)
 ****
 1  2  14  15  16  17  18  19  20  22  24  25  26 0
 3-21G
 ****
 31  33  36  37  38  39  40  41  42  43  44  45  46 0
 3-21G
 ****


