%nproc=1
%NoSave
%Mem=1900MB
#P OB98/GEN NMR

erre ene a

0 1
  C      520.652    -289.596    -160.250
  O      519.958    -288.648    -159.455
  P      519.995    -287.115    -159.904
  C      521.040    -284.997    -158.782
  O      521.120    -286.395    -158.993
  C      522.342    -284.480    -158.146
  O      522.431    -284.977    -156.787
  C      523.625    -284.908    -158.871
  O      524.566    -283.838    -158.715
  C      524.073    -286.116    -158.084
  O      525.467    -286.408    -158.256
  C      523.678    -285.700    -156.680
  N      525.265    -287.956    -152.422
  C      525.751    -286.830    -153.068
  N      526.776    -286.187    -152.458
  N      525.293    -286.375    -154.205
  C      524.258    -287.115    -154.689
  C      523.708    -288.271    -154.168
  C      524.210    -288.733    -152.889
  O      523.752    -289.675    -152.241
  N      522.734    -288.780    -154.983
  C      522.646    -287.896    -155.961
  N      523.510    -286.846    -155.801
  O      518.627    -286.529    -159.329
  O      520.160    -286.859    -161.374
  H      525.595    -286.696    -159.171
  H      517.920    -286.554    -160.013
  H      525.653    -288.247    -151.540
  H      521.968    -287.958    -156.801
  H      524.415    -285.030    -156.204
  H      523.510    -287.004    -158.407
  H      527.165    -286.467    -151.567
  H      523.476    -285.123    -159.942
  H      527.137    -285.339    -152.895
  H      522.277    -283.383    -158.091
  H      520.209    -284.786    -158.088
  H      520.828    -284.486    -159.728
  P      525.384    -283.365    -160.017
  C      527.577    -284.062    -161.195
  O      526.587    -284.391    -160.245
  O      526.131    -282.036    -159.499
  O      524.536    -283.065    -161.216
  H      526.225    -281.399    -160.238
  H      528.498    -284.623    -160.966
  H      527.817    -282.995    -161.193
  H      527.234    -284.357    -162.192
  H      520.535    -290.571    -159.825
  H      521.691    -289.343    -160.282
  H      520.253    -289.589    -161.243

 3  4  5  6  7  8  9  10  11  12  23  26  30  31 0
 6-311+G(2d,p)
 ****
 33  35  36  37  38 0
 6-311+G(2d,p)
 ****
 1  2  13  14  15  16  17  18  19  20  21  22  24  25 0
 3-21G
 ****
 27  28  29  32  34  39  40  41  42  43  44  45  46  47  48  49 0
 3-21G
 ****


