%nproc=1
%NoSave
%Mem=1900MB
#P OB98/GEN NMR

erre ene a

0 1
  C      -80.814    -345.763      17.230
  O      -79.871    -346.796      17.413
  H      -81.815    -346.166      17.406
  H      -80.757    -345.396      16.202
  H      -80.642    -344.935      17.923
  P      -78.341    -346.405      17.670
  C      -77.583    -348.875      17.579
  O      -77.419    -347.566      17.046
  C      -77.270    -349.952      16.541
  O      -78.314    -349.974      15.541
  C      -75.956    -349.694      15.803
  O      -74.804    -350.218      16.452
  C      -76.199    -350.396      14.470
  O      -75.821    -351.783      14.528
  C      -77.716    -350.263      14.267
  N      -77.932    -348.862       9.353
  C      -77.315    -349.967       9.914
  N      -76.646    -350.767       9.058
  N      -77.345    -350.234      11.194
  C      -77.965    -349.289      11.935
  C      -78.594    -348.145      11.493
  C      -78.624    -347.894      10.065
  O      -79.172    -346.943       9.519
  N      -79.083    -347.400      12.544
  C      -78.672    -348.051      13.614
  N      -78.057    -349.242      13.296
  O      -78.158    -346.634      19.248
  O      -77.959    -345.008      17.291
  H      -76.277    -352.190      15.292
  H      -77.498    -346.006      19.594
  H      -77.902    -348.723       8.361
  H      -78.824    -347.728      14.635
  H      -78.152    -351.204      13.911
  H      -75.599    -349.942      13.673
  H      -76.520    -350.563       8.079
  H      -75.826    -348.626      15.606
  H      -76.025    -351.481       9.452
  H      -77.274    -350.935      17.027
  H      -78.624    -348.949      17.899
  H      -76.958    -349.005      18.464
  P      -73.446    -349.380      16.512
  C      -72.530    -350.633      18.628
  O      -72.351    -350.250      17.282
  O      -73.785    -348.209      17.545
  O      -72.961    -348.844      15.201
  H      -74.017    -347.390      17.075
  H      -71.686    -351.207      18.951
  H      -73.418    -351.224      18.716
  H      -72.622    -349.759      19.238

 6  7  8  9  10  11  12  13  14  15  26  29  33  34 0
 6-311+G(2d,p)
 ****
 36  38  39  40  41 0
 6-311+G(2d,p)
 ****
 1  2  3  4  5  16  17  18  19  20  21  22  23  24  25 0
 3-21G
 ****
 27  28  30  31  32  35  37  42  43  44  45  46  47 0
 3-21G
 ****
 48  49 0
 3-21G
 ****


