%nproc=1
%NoSave
%Mem=1900MB
#P OB98/GEN NMR

erre ene a

0 1
  C      680.634    -546.916    -130.788
  O      679.642    -547.073    -131.808
  P      679.681    -548.399    -132.706
  C      679.240    -547.218    -134.982
  O      678.792    -548.158    -134.021
  C      678.048    -546.561    -135.681
  O      677.337    -545.656    -134.813
  C      678.429    -545.733    -136.903
  O      678.617    -546.544    -138.047
  C      677.199    -544.857    -137.068
  O      676.160    -545.602    -137.728
  C      676.805    -544.570    -135.613
  N      675.933    -539.538    -135.207
  C      675.242    -540.525    -135.807
  N      675.545    -541.841    -135.893
  C      676.694    -542.105    -135.246
  C      677.508    -541.200    -134.591
  C      677.089    -539.861    -134.580
  N      677.804    -538.854    -133.956
  N      678.611    -541.831    -134.047
  C      678.462    -543.103    -134.368
  N      677.315    -543.311    -135.100
  O      678.812    -549.438    -131.859
  O      681.062    -548.918    -132.957
  H      675.313    -545.136    -137.547
  H      679.171    -550.336    -131.962
  H      674.316    -540.224    -136.299
  H      679.134    -543.899    -134.104
  H      675.718    -544.569    -135.467
  H      677.389    -543.969    -137.672
  H      679.307    -545.101    -136.687
  H      677.352    -547.359    -135.988
  H      679.882    -547.703    -135.717
  H      677.426    -537.920    -133.972
  H      678.655    -539.094    -133.469
  H      679.860    -546.466    -134.477
  P      679.816    -546.151    -139.045
  C      679.369    -547.608    -141.150
  O      680.082    -547.446    -139.939
  O      681.081    -546.086    -138.065
  O      679.610    -544.870    -139.784
  H      681.726    -545.436    -138.406
  H      679.870    -548.363    -141.768
  H      679.322    -546.664    -141.703
  H      678.348    -547.961    -140.937
  H      680.478    -545.988    -130.278
  H      681.607    -546.919    -131.233
  H      680.559    -547.724    -130.090

 3  4  5  6  7  8  9  10  11  12  22  25  29  30  31  32 0
 6-311+G(2d,p)
 ****
 33  36  37 0
 6-311+G(2d,p)
 ****
 1  2  13  14  15  16  17  18  19  20  21  23  24  26 0
 3-21G
 ****
 27  28  34  35  38  39  40  41  42  43  44  45  46  47  48 0
 3-21G
 ****


