%nproc=1
%NoSave
%Mem=1900MB
#P OB98/GEN NMR

erre ene a

0 1
  C      -93.845     343.016    -272.473
  O      -94.217     344.382    -272.655
  P      -95.711     344.713    -273.136
  C      -97.199     346.826    -273.140
  O      -95.874     346.307    -273.244
  C      -97.165     348.305    -272.731
  O      -96.397     348.445    -271.503
  C      -96.493     349.243    -273.748
  O      -97.298     349.816    -274.775
  C      -96.062     350.394    -272.848
  O      -97.158     351.302    -272.647
  C      -95.708     349.709    -271.529
  N      -91.111     351.977    -271.500
  C      -92.360     352.461    -271.686
  N      -93.532     351.788    -271.679
  C      -93.334     350.479    -271.433
  C      -92.118     349.845    -271.224
  C      -90.961     350.651    -271.261
  N      -89.697     350.150    -271.083
  N      -92.309     348.495    -271.014
  C      -93.613     348.320    -271.118
  N      -94.278     349.495    -271.359
  O      -96.802     343.999    -272.413
  O      -95.673     344.273    -274.679
  H      -96.801     352.076    -272.182
  H      -96.534     343.870    -274.919
  H      -92.423     353.532    -271.868
  H      -94.122     347.367    -271.024
  H      -96.042     350.288    -270.657
  H      -95.247     350.989    -273.289
  H      -95.611     348.764    -274.193
  H      -98.195     348.652    -272.534
  H      -97.754     346.247    -272.391
  H      -88.921     350.789    -271.177
  H      -89.565     349.156    -270.966
  H      -97.692     346.656    -274.095
  P      -97.373     349.159    -276.243
  C      -99.275     349.032    -278.033
  O      -98.785     349.622    -276.841
  O      -97.125     347.690    -276.294
  O      -96.325     350.044    -277.072
  H      -96.601     350.967    -277.208
  H     -100.326     349.314    -278.160
  H      -99.211     347.941    -277.991
  H      -98.713     349.410    -278.897
  H      -92.825     342.964    -272.153
  H      -93.956     342.490    -273.398
  H      -94.475     342.571    -271.731

 3  4  5  6  7  8  9  10  11  12  22  25  29  30  31  32 0
 6-311+G(2d,p)
 ****
 33  36  37 0
 6-311+G(2d,p)
 ****
 1  2  13  14  15  16  17  18  19  20  21  23  24  26 0
 3-21G
 ****
 27  28  34  35  38  39  40  41  42  43  44  45  46  47  48 0
 3-21G
 ****


