%nproc=1
%NoSave
%Mem=1900MB
#P OB98/GEN NMR

erre ene a

0 1
  C      167.600     252.930    1044.837
  O      167.151     254.052    1045.568
  H      167.593     253.184    1043.774
  H      166.937     252.077    1045.003
  H      168.623     252.672    1045.133
  P      167.053     253.875    1047.164
  C      168.397     255.913    1048.039
  O      167.116     255.380    1047.733
  C      168.277     257.334    1048.584
  O      168.110     258.274    1047.504
  C      167.091     257.558    1049.525
  O      167.417     257.138    1050.844
  C      166.918     259.061    1049.440
  O      167.873     259.706    1050.307
  C      167.252     259.360    1047.969
  N      165.022     262.208    1044.306
  C      166.076     262.439    1045.119
  N      166.577     261.671    1046.114
  C      165.888     260.517    1046.203
  C      164.791     260.130    1045.454
  C      164.371     261.029    1044.450
  N      163.285     260.773    1043.624
  N      164.334     258.892    1045.840
  C      165.188     258.512    1046.788
  N      166.112     259.481    1047.071
  O      168.011     252.907    1047.769
  O      165.503     253.512    1047.334
  H      168.757     259.537    1049.929
  H      164.952     254.058    1046.734
  H      166.577     263.401    1044.960
  H      165.182     257.534    1047.277
  H      167.834     260.286    1047.875
  H      165.922     259.388    1049.765
  H      166.174     257.057    1049.147
  H      169.231     257.597    1049.093
  H      169.032     255.919    1047.141
  H      162.943     261.543    1043.081
  H      162.728     259.959    1043.825
  H      168.868     255.265    1048.784
  P      166.524     256.061    1051.620
  C      168.537     255.322    1053.055
  O      167.234     255.893    1053.052
  O      166.286     254.792    1050.864
  O      165.174     256.838    1051.966
  H      164.467     256.210    1052.204
  H      168.899     255.264    1054.060
  H      169.196     255.933    1052.474
  H      168.497     254.339    1052.633

 6  7  8  9  10  11  12  13  14  15  25  28  32  33  34  35 0
 6-311+G(2d,p)
 ****
 36  39  40 0
 6-311+G(2d,p)
 ****
 1  2  3  4  5  16  17  18  19  20  21  22  23  24 0
 3-21G
 ****
 26  27  29  30  31  37  38  41  42  43  44  45  46  47 0
 3-21G
 ****
 48 0
 3-21G
 ****


