%nproc=1
%NoSave
%Mem=1900MB
#P OB98/GEN NMR

erre ene a

0 1
  C      -62.008     -15.215     -11.686
  O      -61.862     -16.604     -11.902
  H      -61.358     -14.681     -12.383
  H      -61.706     -14.968     -10.665
  H      -63.041     -14.900     -11.856
  P      -62.957     -17.561     -11.223
  C      -64.526     -17.458     -13.287
  O      -64.365     -17.195     -11.902
  C      -65.968     -17.855     -13.585
  O      -66.265     -19.146     -13.009
  C      -67.013     -16.890     -13.034
  O      -67.213     -15.785     -13.904
  C      -68.238     -17.788     -13.002
  O      -68.772     -17.928     -14.336
  C      -67.641     -19.123     -12.536
  N      -70.341     -20.741      -8.560
  C      -70.700     -20.634      -9.890
  N      -71.960     -21.003     -10.203
  N      -69.899     -20.200     -10.828
  C      -68.678     -19.843     -10.366
  C      -68.208     -19.897      -9.073
  C      -69.097     -20.394      -8.050
  O      -68.824     -20.518      -6.859
  N      -66.915     -19.450      -8.988
  C      -66.612     -19.105     -10.223
  N      -67.649     -19.322     -11.097
  O      -63.080     -16.961      -9.742
  O      -62.605     -19.009     -11.194
  H      -69.333     -17.149     -14.502
  H      -62.584     -17.534      -9.128
  H      -70.999     -21.071      -7.877
  H      -65.659     -18.704     -10.538
  H      -68.154     -19.984     -12.978
  H      -69.039     -17.386     -12.381
  H      -72.634     -21.325      -9.527
  H      -66.768     -16.565     -12.015
  H      -72.243     -20.936     -11.172
  H      -66.070     -17.954     -14.673
  H      -63.856     -18.275     -13.575
  H      -64.262     -16.560     -13.853
  P      -68.117     -14.565     -13.386
  C      -66.170     -13.090     -12.519
  O      -67.313     -13.864     -12.186
  O      -69.322     -15.313     -12.644
  O      -68.617     -13.649     -14.448
  H      -70.151     -15.187     -13.146
  H      -65.739     -12.687     -11.626
  H      -66.458     -12.290     -13.168
  H      -65.451     -13.710     -13.013

 6  7  8  9  10  11  12  13  14  15  26  29  33  34 0
 6-311+G(2d,p)
 ****
 36  38  39  40  41 0
 6-311+G(2d,p)
 ****
 1  2  3  4  5  16  17  18  19  20  21  22  23  24  25 0
 3-21G
 ****
 27  28  30  31  32  35  37  42  43  44  45  46  47 0
 3-21G
 ****
 48  49 0
 3-21G
 ****


