%nproc=1
%NoSave
%Mem=1900MB
#P OB98/GEN NMR

erre ene a

0 1
  C      922.428     606.264     -32.438
  O      921.029     606.466     -32.359
  H      922.898     606.758     -31.587
  H      922.824     606.710     -33.356
  H      922.671     605.198     -32.402
  P      920.085     605.752     -33.453
  C      918.725     607.930     -33.534
  O      918.671     606.519     -33.404
  C      917.489     608.571     -32.912
  O      916.313     608.131     -33.646
  C      917.267     608.204     -31.438
  O      916.765     609.358     -30.754
  C      916.211     607.129     -31.478
  O      915.444     607.068     -30.279
  C      915.386     607.555     -32.696
  N      911.598     604.280     -32.035
  C      911.982     605.360     -31.274
  N      911.270     605.587     -30.138
  N      912.974     606.142     -31.576
  C      913.592     605.805     -32.736
  C      913.297     604.762     -33.583
  C      912.208     603.890     -33.225
  O      911.825     602.915     -33.853
  N      914.171     604.727     -34.655
  C      914.978     605.754     -34.444
  N      914.687     606.430     -33.298
  O      919.986     604.267     -33.339
  O      920.705     606.207     -34.856
  H      914.670     606.497     -30.458
  H      921.261     605.496     -35.229
  H      910.818     603.705     -31.746
  H      915.810     606.031     -35.094
  H      914.625     608.314     -32.454
  H      916.674     606.144     -31.640
  H      910.478     605.033     -29.850
  H      918.193     607.859     -30.942
  H      911.527     606.397     -29.574
  H      917.551     609.663     -33.038
  H      918.766     608.179     -34.602
  H      919.630     608.317     -33.040
  P      917.742     610.177     -29.782
  C      916.643     610.872     -27.549
  O      916.847     611.201     -28.922
  O      918.948     610.769     -30.434
  O      918.157     609.076     -28.678
  H      919.051     609.294     -28.352
  H      916.037     611.624     -27.088
  H      917.588     610.821     -27.050
  H      916.151     609.924     -27.479

 6  7  8  9  10  11  12  13  14  15  26  29  33  34 0
 6-311+G(2d,p)
 ****
 36  38  39  40  41 0
 6-311+G(2d,p)
 ****
 1  2  3  4  5  16  17  18  19  20  21  22  23  24  25 0
 3-21G
 ****
 27  28  30  31  32  35  37  42  43  44  45  46  47 0
 3-21G
 ****
 48  49 0
 3-21G
 ****


