%nproc=1
%NoSave
%Mem=1900MB
#P OB98/GEN NMR

erre ene a

0 1
  C        3.004    -261.962      38.708
  O        2.063    -262.656      39.495
  P        0.730    -262.002      40.067
  C       -1.152    -263.733      39.508
  O       -0.511    -262.505      39.181
  C       -2.668    -263.631      39.316
  O       -3.208    -262.774      40.353
  C       -3.026    -262.982      37.965
  O       -4.117    -263.604      37.294
  C       -3.177    -261.510      38.327
  O       -3.929    -260.766      37.383
  C       -3.765    -261.595      39.735
  N       -4.538    -256.633      40.530
  C       -5.201    -257.491      39.675
  N       -6.039    -256.907      38.787
  N       -5.015    -258.789      39.660
  C       -4.062    -259.205      40.522
  C       -3.341    -258.451      41.423
  C       -3.582    -257.030      41.450
  O       -2.940    -256.218      42.111
  N       -2.411    -259.209      42.087
  C       -2.534    -260.410      41.569
  N       -3.507    -260.452      40.586
  O        0.794    -260.551      40.425
  O        0.524    -262.835      41.440
  H       -4.852    -261.081      37.425
  H        0.125    -262.222      42.087
  H       -4.668    -255.631      40.436
  H       -1.940    -261.271      41.833
  H       -4.850    -261.708      39.709
  H       -2.170    -261.071      38.351
  H       -6.097    -255.910      38.677
  H       -2.199    -263.090      37.259
  H       -6.342    -257.479      37.993
  H       -3.116    -264.622      39.433
  H       -0.913    -263.932      40.559
  H       -0.736    -264.552      38.910
  P       -4.156    -264.236      35.830
  C       -2.629    -266.286      36.111
  O       -2.760    -264.989      35.566
  O       -4.083    -262.990      34.834
  O       -5.366    -265.062      35.540
  H       -4.676    -263.148      34.070
  H       -1.573    -266.560      36.095
  H       -3.195    -266.994      35.507
  H       -2.994    -266.303      37.145
  H        3.808    -262.620      38.450
  H        3.387    -261.130      39.261
  H        2.531    -261.609      37.815

 3  4  5  6  7  8  9  10  11  12  23  26  30  31 0
 6-311+G(2d,p)
 ****
 33  35  36  37  38 0
 6-311+G(2d,p)
 ****
 1  2  13  14  15  16  17  18  19  20  21  22  24  25 0
 3-21G
 ****
 27  28  29  32  34  39  40  41  42  43  44  45  46  47  48  49 0
 3-21G
 ****


