%nproc=1
%NoSave
%Mem=1900MB
#P OB98/GEN NMR

erre ene a

0 1
  C      186.047     -84.330     -25.145
  O      186.981     -85.404     -25.271
  P      188.534     -85.005     -25.190
  C      189.444     -86.932     -23.710
  O      189.382     -86.354     -25.005
  C      190.121     -88.303     -23.762
  O      189.395     -89.243     -24.574
  C      191.532     -88.259     -24.332
  O      192.442     -87.813     -23.344
  C      191.749     -89.712     -24.735
  O      192.185     -90.507     -23.613
  C      190.347     -90.150     -25.188
  N      187.385     -91.859     -28.929
  C      187.367     -92.155     -27.580
  N      186.406     -93.006     -27.165
  N      188.211     -91.656     -26.716
  C      189.116     -90.817     -27.272
  C      189.219     -90.426     -28.587
  C      188.279     -90.986     -29.534
  O      188.241     -90.739     -30.733
  N      190.226     -89.510     -28.761
  C      190.808     -89.450     -27.578
  N      190.135     -90.173     -26.625
  O      188.654     -84.274     -23.772
  O      188.979     -84.118     -26.305
  H      192.273     -91.434     -23.896
  H      188.810     -83.320     -23.903
  H      186.715     -92.278     -29.551
  H      191.698     -88.881     -27.353
  H      190.106     -91.159     -24.829
  H      192.522     -89.811     -25.501
  H      185.721     -93.425     -27.775
  H      191.559     -87.615     -25.220
  H      186.369     -93.230     -26.178
  H      190.148     -88.694     -22.736
  H      188.439     -87.032     -23.297
  H      189.990     -86.252     -23.048
  P      193.102     -86.364     -23.532
  C      191.926     -85.254     -21.503
  O      193.143     -85.664     -22.095
  O      191.973     -85.551     -24.326
  O      194.391     -86.364     -24.283
  H      192.384     -85.038     -25.046
  H      192.030     -85.301     -20.417
  H      191.092     -85.893     -21.808
  H      191.715     -84.222     -21.794
  H      185.051     -84.714     -25.214
  H      186.211     -83.621     -25.929
  H      186.180     -83.851     -24.197

 3  4  5  6  7  8  9  10  11  12  23  26  30  31 0
 6-311+G(2d,p)
 ****
 33  35  36  37  38 0
 6-311+G(2d,p)
 ****
 1  2  13  14  15  16  17  18  19  20  21  22  24  25 0
 3-21G
 ****
 27  28  29  32  34  39  40  41  42  43  44  45  46  47  48  49 0
 3-21G
 ****


