%nproc=1
%NoSave
%Mem=1900MB
#P OB98/GEN NMR

erre ene a

0 1
  C      -42.268     -22.263     -15.069
  O      -43.055     -21.171     -15.523
  P      -44.464     -21.513     -16.217
  C      -46.385     -20.839     -14.610
  O      -45.467     -21.850     -15.012
  C      -46.306     -20.613     -13.106
  O      -44.970     -20.222     -12.740
  C      -47.210     -19.506     -12.584
  O      -48.549     -19.950     -12.414
  C      -46.560     -19.204     -11.242
  O      -47.002     -20.161     -10.262
  C      -45.066     -19.401     -11.549
  N      -42.601     -15.543      -9.385
  C      -43.189     -16.653      -8.810
  N      -43.081     -16.762      -7.468
  N      -43.827     -17.570      -9.487
  C      -43.820     -17.350     -10.823
  C      -43.274     -16.289     -11.511
  C      -42.615     -15.254     -10.744
  O      -42.134     -14.218     -11.192
  N      -43.457     -16.425     -12.862
  C      -44.078     -17.579     -12.996
  N      -44.348     -18.165     -11.784
  O      -44.199     -22.944     -16.885
  O      -44.938     -20.513     -17.214
  H      -47.974     -20.092     -10.213
  H      -44.805     -23.074     -17.640
  H      -42.108     -14.877      -8.818
  H      -44.349     -18.025     -13.943
  H      -44.564     -19.947     -10.743
  H      -46.816     -18.211     -10.857
  H      -42.493     -16.161      -6.911
  H      -47.160     -18.620     -13.226
  H      -43.473     -17.587      -7.032
  H      -46.531     -21.563     -12.605
  H      -47.401     -21.151     -14.870
  H      -46.152     -19.916     -15.151
  P      -49.656     -19.270     -13.360
  C      -51.010     -21.348     -14.132
  O      -50.022     -20.386     -14.448
  O      -48.819     -18.185     -14.183
  O      -50.801     -18.662     -12.624
  H      -49.402     -17.458     -14.473
  H      -51.814     -20.913     -13.531
  H      -50.550     -22.174     -13.582
  H      -51.437     -21.734     -15.060
  H      -41.364     -21.894     -14.632
  H      -42.030     -22.899     -15.896
  H      -42.817     -22.819     -14.338

 3  4  5  6  7  8  9  10  11  12  23  26  30  31  33  0
 6-311+G(2d,p)
 ****
 35  36  37  38 0
 6-311+G(2d,p)
 ****
 1  2  13  14  15  16  17  18  19  20  21  22  24  25  27  28  29 0
 3-21G
 ****
 32  34  39  40  41  42  43  44  45  46  47  48  49 0
 3-21G
 ****


