%nproc=1
%NoSave
%Mem=1900MB
#P OB98/GEN NMR

erre ene a

0 1
  C        9.102     -27.797      24.905
  O        9.871     -28.298      23.835
  H        9.615     -26.929      25.328
  H        9.009     -28.562      25.680
  H        8.107     -27.488      24.574
  P        9.167     -29.252      22.763
  C        9.045     -27.641      20.750
  O        8.317     -28.332      21.757
  C        8.381     -27.776      19.380
  O        8.454     -29.148      18.937
  C        6.897     -27.399      19.406
  O        6.638     -26.019      19.218
  C        6.342     -28.225      18.249
  O        6.436     -27.510      17.006
  C        7.248     -29.460      18.227
  N        3.666     -33.081      17.781
  C        3.844     -31.939      17.022
  N        2.930     -31.727      16.051
  N        4.818     -31.090      17.217
  C        5.591     -31.385      18.286
  C        5.499     -32.474      19.123
  C        4.464     -33.449      18.854
  O        4.274     -34.482      19.486
  N        6.435     -32.419      20.128
  C        7.030     -31.257      19.946
  N        6.608     -30.632      18.796
  O        8.019     -29.985      23.612
  O       10.063     -30.259      22.109
  H        6.212     -28.128      16.284
  H        7.869     -30.878      23.254
  H        2.916     -33.711      17.565
  H        7.800     -30.843      20.586
  H        7.540     -29.724      17.203
  H        5.283     -28.448      18.403
  H        2.114     -32.300      15.913
  H        6.426     -27.748      20.330
  H        2.913     -30.811      15.598
  H        8.934     -27.173      18.649
  H       10.041     -28.084      20.727
  H        9.159     -26.588      21.018
  P        5.245     -25.377      19.668
  C        5.392     -25.458      22.288
  O        4.851     -25.976      21.093
  O        4.194     -26.061      18.675
  O        5.178     -23.886      19.614
  H        3.982     -25.465      17.934
  H        4.998     -26.000      23.122
  H        5.131     -24.424      22.379
  H        6.457     -25.557      22.269

 6  7  8  9  10  11  12  13  14  15  26  29  33  34 0
 6-311+G(2d,p)
 ****
 36  38  39  40  41 0
 6-311+G(2d,p)
 ****
 1  2  3  4  5  16  17  18  19  20  21  22  23  24  25 0
 3-21G
 ****
 27  28  30  31  32  35  37  42  43  44  45  46  47 0
 3-21G
 ****
 48  49 0
 3-21G
 ****


