%nproc=1
%NoSave
%Mem=1900MB
#P OB98/GEN NMR

erre ene a

0 1
  C       30.729      23.646     -55.526
  O       29.496      23.105     -55.949
  H       30.622      23.992     -54.494
  H       31.004      24.498     -56.151
  H       31.517      22.889     -55.560
  P       29.412      22.401     -57.387
  C       28.739      24.598     -58.553
  O       29.689      23.543     -58.479
  C       28.857      25.309     -59.898
  O       30.171      25.890     -60.044
  C       28.674      24.390     -61.100
  O       27.310      24.070     -61.287
  C       29.297      25.239     -62.197
  O       28.386      26.255     -62.644
  C       30.495      25.875     -61.453
  N       31.755      25.170     -61.697
  C       32.729      25.878     -62.391
  O       32.570      27.028     -62.792
  N       33.889      25.197     -62.651
  C       34.120      23.881     -62.371
  O       35.078      23.255     -62.814
  C       33.087      23.207     -61.572
  C       31.962      23.867     -61.289
  O       28.197      21.572     -57.633
  O       30.748      21.518     -57.450
  H       30.527      20.586     -57.258
  H       27.538      25.806     -62.823
  H       34.584      25.685     -63.196
  H       33.261      22.181     -61.273
  H       31.173      23.380     -60.726
  H       30.626      26.921     -61.759
  H       29.575      24.650     -63.073
  H       29.273      23.481     -60.973
  H       28.123      26.125     -59.918
  H       28.944      25.309     -57.746
  H       27.734      24.186     -58.417
  P       26.866      22.657     -61.890
  C       26.731      23.568     -64.281
  O       27.326      22.603     -63.424
  O       25.437      22.291     -61.659
  O       27.845      21.603     -61.184
  H       27.310      20.897     -60.771
  H       27.107      23.442     -65.275
  H       26.969      24.551     -63.931
  H       25.669      23.438     -64.282

 6  7  8  9  10  11  12  13  14  15  16  27  31  32  33  34  35 0
 6-311+G(2d,p)
 ****
 36  37 0
 6-311+G(2d,p)
 ****
 1  2  3  4  5  17  18  19  20  21  22  23  24  25 0
 3-21G
 ****
 26  28  29  30  38  39  40  41  42  43  44  45 0
 3-21G
 ****


