%nproc=1
%NoSave
%Mem=1900MB
#P OB98/GEN NMR

erre ene a

0 1
  C       42.407     -19.440     -23.411
  O       43.374     -20.173     -24.134
  H       41.639     -19.088     -24.105
  H       42.873     -18.575     -22.933
  H       41.937     -20.075     -22.655
  P       44.601     -20.778     -23.297
  C       46.314     -18.991     -24.068
  O       45.582     -19.542     -22.983
  C       47.644     -18.416     -23.576
  O       47.373     -17.298     -22.684
  C       48.509     -19.425     -22.805
  O       49.883     -19.199     -23.133
  C       48.278     -19.036     -21.355
  O       49.339     -19.462     -20.508
  C       48.142     -17.522     -21.486
  N       48.931     -14.558     -17.497
  C       49.781     -14.931     -18.520
  N       51.041     -14.444     -18.473
  N       49.429     -15.717     -19.502
  C       48.134     -16.111     -19.436
  C       47.197     -15.822     -18.474
  C       47.605     -14.968     -17.379
  O       46.905     -14.621     -16.432
  N       46.003     -16.443     -18.747
  C       46.220     -17.104     -19.871
  N       47.497     -16.929     -20.328
  O       45.414     -21.626     -24.384
  O       44.226     -21.598     -22.108
  H       49.055     -19.326     -19.579
  H       45.865     -22.385     -23.967
  H       49.256     -13.960     -16.758
  H       45.494     -17.718     -20.388
  H       49.113     -17.024     -21.601
  H       47.345     -19.483     -20.989
  H       51.374     -13.807     -17.766
  H       48.248     -20.467     -23.005
  H       51.678     -14.694     -19.222
  H       48.188     -18.008     -24.436
  H       45.723     -18.193     -24.530
  H       46.502     -19.773     -24.810
  P       50.452     -19.891     -24.463
  C       51.574     -21.991     -23.428
  O       50.520     -21.479     -24.230
  O       51.992     -19.450     -24.467
  O       49.763     -19.455     -25.715
  H       52.144     -18.790     -25.167
  H       51.489     -23.056     -23.364
  H       51.513     -21.569     -22.447
  H       52.515     -21.734     -23.869

 6  7  8  9  10  11  12  13  14  15  26  29  33  34 0
 6-311+G(2d,p)
 ****
 36  38  39  40  41 0
 6-311+G(2d,p)
 ****
 1  2  3  4  5  16  17  18  19  20  21  22  23  24  25 0
 3-21G
 ****
 27  28  30  31  32  35  37  42  43  44  45  46  47 0
 3-21G
 ****
 48  49 0
 3-21G
 ****


