%nproc=1
%NoSave
%Mem=1900MB
#P OB98/GEN NMR

erre ene a

0 1
  C       51.209    -153.696     115.792
  O       49.865    -153.313     115.574
  H       51.814    -153.357     114.945
  H       51.292    -154.784     115.867
  H       51.595    -153.231     116.705
  P       48.759    -153.764     116.642
  C       48.351    -155.833     115.142
  O       47.765    -154.757     115.870
  C       47.894    -155.805     113.683
  O       48.393    -156.962     112.981
  C       46.382    -155.826     113.504
  O       45.825    -154.563     113.802
  C       46.280    -156.257     112.048
  O       46.537    -155.152     111.167
  C       47.423    -157.301     111.960
  N       46.960    -158.679     112.122
  C       46.058    -159.139     111.158
  O       45.682    -158.397     110.250
  N       45.592    -160.430     111.262
  C       46.019    -161.201     112.212
  N       45.522    -162.467     112.260
  C       46.998    -160.763     113.229
  C       47.413    -159.501     113.132
  O       48.075    -152.661     117.389
  O       49.554    -154.741     117.629
  H       46.192    -155.415     110.290
  H       49.886    -154.250     118.404
  H       47.334    -161.443     113.998
  H       48.133    -159.101     113.838
  H       47.938    -157.227     110.996
  H       45.292    -156.641     111.796
  H       45.935    -156.612     114.125
  H       48.333    -154.916     113.209
  H       44.869    -162.727     111.527
  H       48.023    -156.761     115.620
  H       45.901    -163.198     112.846
  H       49.446    -155.785     115.197
  P       44.418    -154.423     114.565
  C       43.206    -154.065     112.322
  O       43.492    -153.528     113.607
  O       44.502    -153.953     115.978
  O       43.762    -155.877     114.414
  H       44.178    -156.512     115.053
  H       42.585    -153.382     111.780
  H       42.697    -155.000     112.431
  H       44.120    -154.217     111.787

 6  7  8  9  10  11  12  13  14  15  16  26  30  31  32  33  35 0
 6-311+G(2d,p)
 ****
 37  38 0
 6-311+G(2d,p)
 ****
 1  2  3  4  5  17  18  19  20  21  22  23  24  25 0
 3-21G
 ****
 27  28  29  34  36  39  40  41  42  43  44  45  46 0
 3-21G
 ****


