%nproc=1
%NoSave
%Mem=1900MB
#P OB98/GEN NMR

erre ene a

0 1
  C     -700.499    -894.206    -699.097
  O     -699.451    -893.436    -699.665
  H     -701.337    -894.228    -699.800
  H     -700.840    -893.736    -698.175
  H     -700.181    -895.229    -698.899
  P     -697.999    -893.593    -699.000
  C     -696.684    -894.347    -701.109
  O     -696.932    -893.314    -700.178
  C     -696.605    -893.784    -702.528
  O     -697.959    -893.476    -702.984
  C     -695.763    -892.494    -702.643
  O     -695.065    -892.505    -703.899
  C     -696.839    -891.401    -702.705
  O     -696.357    -890.211    -703.326
  C     -697.918    -892.138    -703.506
  N     -700.590    -888.222    -705.205
  C     -699.408    -888.776    -705.664
  N     -698.795    -888.159    -706.691
  N     -698.852    -889.845    -705.140
  C     -699.575    -890.372    -704.129
  C     -700.752    -889.935    -703.577
  C     -701.350    -888.733    -704.151
  O     -702.386    -888.197    -703.779
  N     -701.131    -890.711    -702.518
  C     -700.179    -891.617    -702.407
  N     -699.214    -891.456    -703.355
  O     -697.884    -895.174    -698.754
  O     -697.787    -892.818    -697.746
  H     -696.039    -890.440    -704.217
  H     -698.162    -895.387    -697.845
  H     -700.963    -887.401    -705.636
  H     -700.128    -892.396    -701.663
  H     -697.701    -892.174    -704.571
  H     -697.170    -891.156    -701.697
  H     -699.179    -887.351    -707.171
  H     -695.057    -892.344    -701.829
  H     -697.954    -888.574    -707.074
  H     -696.210    -894.560    -703.193
  H     -697.504    -895.076    -701.066
  H     -695.741    -894.860    -700.853
  P     -694.014    -891.326    -704.176
  C     -692.030    -892.927    -704.661
  O     -692.859    -891.891    -705.151
  O     -693.260    -891.151    -702.777
  O     -694.646    -890.041    -704.617
  H     -693.040    -890.230    -702.626
  H     -691.317    -893.198    -705.411
  H     -692.630    -893.778    -704.416
  H     -691.516    -892.589    -703.786

 6  7  8  9  10  11  12  13  14  15  26  29  33  34 0
 6-311+G(2d,p)
 ****
 36  38  39  40  41 0
 6-311+G(2d,p)
 ****
 1  2  3  4  5  16  17  18  19  20  21  22  23  24  25 0
 3-21G
 ****
 27  28  30  31  32  35  37  42  43  44  45  46  47 0
 3-21G
 ****
 48  49 0
 3-21G
 ****


