%nproc=1
%NoSave
%Mem=1900MB
#P OB98/GEN NMR

erre ene a

0 1
  C     -461.583    -914.415    -265.942
  O     -460.748    -913.274    -265.771
  P     -460.308    -912.340    -266.999
  C     -457.785    -912.264    -266.477
  O     -458.786    -912.687    -267.389
  C     -456.370    -912.507    -267.028
  O     -456.270    -912.063    -268.388
  C     -455.257    -911.805    -266.248
  O     -454.953    -912.510    -265.062
  C     -454.155    -911.790    -267.298
  O     -453.468    -913.059    -267.331
  C     -454.939    -911.571    -268.599
  N     -453.075    -908.165    -271.935
  C     -452.876    -909.481    -271.802
  N     -453.407    -910.337    -270.870
  C     -454.242    -909.670    -270.059
  C     -454.540    -908.307    -270.071
  C     -453.907    -907.541    -271.070
  N     -454.092    -906.188    -271.202
  N     -455.412    -907.993    -269.066
  C     -455.664    -909.134    -268.453
  N     -454.968    -910.180    -269.026
  O     -460.573    -910.884    -266.797
  O     -461.153    -912.897    -268.249
  H     -452.914    -913.099    -266.531
  H     -461.298    -912.171    -268.892
  H     -452.196    -909.952    -272.526
  H     -456.325    -909.253    -267.607
  H     -454.514    -912.150    -269.435
  H     -453.403    -911.019    -267.091
  H     -455.559    -910.779    -266.028
  H     -456.212    -913.601    -267.029
  H     -457.918    -912.825    -265.536
  H     -453.585    -905.705    -271.919
  H     -454.680    -905.702    -270.527
  H     -457.926    -911.198    -266.268
  P     -455.597    -912.044    -263.665
  C     -453.497    -910.957    -262.682
  O     -454.804    -910.744    -263.191
  O     -455.755    -913.117    -262.642
  O     -457.012    -911.454    -264.096
  H     -457.664    -911.566    -263.370
  H     -453.564    -911.305    -261.652
  H     -452.941    -910.002    -262.725
  H     -452.956    -911.694    -263.298
  H     -461.745    -914.884    -264.994
  H     -461.109    -915.107    -266.606
  H     -462.522    -914.111    -266.355

 3  4  5  6  7  8  9  10  11  12  22  25  29  30  31  32 0
 6-311+G(2d,p)
 ****
 33  36  37 0
 6-311+G(2d,p)
 ****
 1  2  13  14  15  16  17  18  19  20  21  23  24  26 0
 3-21G
 ****
 27  28  34  35  38  39  40  41  42  43  44  45  46  47  48 0
 3-21G
 ****


