%nproc=1
%NoSave
%Mem=1900MB
#P OB98/GEN NMR

erre ene a

0 1
  C       25.202     290.563    1007.195
  O       26.039     291.352    1008.038
  P       27.584     290.878    1008.163
  C       28.755     292.739    1006.752
  O       28.489     292.215    1008.045
  C       28.528     294.256    1006.734
  O       27.120     294.571    1006.680
  C       29.059     294.983    1007.971
  O       30.456     295.181    1007.909
  C       28.314     296.297    1007.875
  O       28.994     297.188    1006.980
  C       26.952     295.864    1007.294
  N       24.128     298.394    1010.675
  C       25.119     298.855    1009.820
  N       25.378     300.189    1009.862
  N       25.793     298.092    1009.009
  C       25.417     296.779    1009.054
  C       24.457     296.206    1009.852
  C       23.727     297.067    1010.774
  O       22.872     296.708    1011.576
  N       24.343     294.866    1009.622
  C       25.216     294.626    1008.663
  N       25.904     295.758    1008.287
  O       27.844     290.136    1006.774
  O       27.857     289.997    1009.330
  H       28.383     297.944    1006.812
  H       28.544     289.468    1006.873
  H       23.649     299.036    1011.284
  H       25.370     293.660    1008.189
  H       26.615     296.555    1006.507
  H       28.241     296.818    1008.836
  H       24.854     300.849    1010.409
  H       28.769     294.453    1008.898
  H       26.063     300.550    1009.219
  H       29.024     294.653    1005.824
  H       28.100     292.268    1006.014
  H       29.788     292.486    1006.469
  P       31.152     295.903    1009.182
  C       32.773     293.891    1009.489
  O       32.623     295.272    1009.268
  O       30.391     295.258    1010.422
  O       31.077     297.388    1009.157
  H       30.374     295.884    1011.180
  H       32.054     293.320    1008.886
  H       32.619     293.665    1010.549
  H       33.783     293.578    1009.214
  H       24.213     290.971    1007.192
  H       25.173     289.558    1007.561
  H       25.593     290.568    1006.199

 3  4  5  6  7  8  9  10  11  12  23  26  30  31  33  0
 6-311+G(2d,p)
 ****
 35  36  37  38 0
 6-311+G(2d,p)
 ****
 1  2  13  14  15  16  17  18  19  20  21  22  24  25  27  28  29 0
 3-21G
 ****
 32  34  39  40  41  42  43  44  45  46  47  48  49 0
 3-21G
 ****


