%nproc=1
%NoSave
%Mem=1900MB
#P OB98/GEN NMR

erre ene a

0 1
  C       83.301      11.251      12.597
  O       83.223      12.128      13.703
  H       82.942      10.266      12.906
  H       84.335      11.153      12.254
  H       82.671      11.612      11.780
  P       83.769      13.623      13.532
  C       81.379      14.606      13.415
  O       82.627      14.435      12.754
  C       81.144      16.077      13.747
  O       81.146      16.869      12.542
  C       79.808      16.358      14.425
  O       79.843      15.956      15.779
  C       79.685      17.854      14.190
  O       80.500      18.590      15.114
  C       80.242      17.980      12.750
  N       79.204      18.003      11.724
  C       78.500      19.205      11.588
  O       78.757      20.160      12.318
  N       77.511      19.278      10.638
  C       77.276      18.266       9.865
  N       76.287      18.406       8.943
  C       78.018      16.994       9.954
  C       78.950      16.928      10.902
  O       85.139      13.763      12.942
  O       83.699      14.231      15.011
  H       81.397      18.207      15.049
  H       84.557      14.127      15.464
  H       77.795      16.178       9.282
  H       79.542      16.028      11.034
  H       80.839      18.896      12.650
  H       78.662      18.210      14.312
  H       78.997      15.856      13.887
  H       81.981      16.422      14.368
  H       75.818      19.306       8.906
  H       81.420      14.015      14.336
  H       76.128      17.753       8.190
  H       80.559      14.223      12.797
  P       78.513      15.515      16.559
  C       79.272      13.065      16.726
  O       78.299      13.962      16.213
  O       77.322      16.381      16.322
  O       78.972      15.468      18.090
  H       79.027      16.383      18.462
  H       79.026      12.066      16.433
  H       79.289      13.129      17.794
  H       80.235      13.323      16.338

 6  7  8  9  10  11  12  13  14  15  16  26  30  31  32  33  35 0
 6-311+G(2d,p)
 ****
 37  38 0
 6-311+G(2d,p)
 ****
 1  2  3  4  5  17  18  19  20  21  22  23  24  25 0
 3-21G
 ****
 27  28  29  34  36  39  40  41  42  43  44  45  46 0
 3-21G
 ****


