%nproc=1
%NoSave
%Mem=1900MB
#P OB98/GEN NMR

erre ene a

0 1
  C     -282.895     281.687    -133.355
  O     -282.104     282.846    -133.615
  P     -281.966     283.282    -135.159
  C     -279.389     283.587    -135.257
  O     -280.667     284.218    -135.295
  C     -278.251     284.618    -135.311
  O     -278.211     285.281    -136.602
  C     -278.367     285.720    -134.241
  O     -277.024     286.054    -133.846
  C     -278.964     286.875    -135.019
  O     -278.761     288.121    -134.340
  C     -278.235     286.715    -136.341
  N     -278.571     291.200    -138.646
  C     -277.917     290.843    -137.483
  N     -277.203     291.823    -136.867
  N     -277.952     289.637    -136.967
  C     -278.670     288.762    -137.716
  C     -279.352     288.993    -138.889
  C     -279.324     290.331    -139.439
  O     -279.882     290.701    -140.465
  N     -279.938     287.828    -139.361
  C     -279.662     286.929    -138.429
  N     -278.852     287.432    -137.447
  O     -283.189     284.290    -135.364
  O     -282.025     282.132    -136.104
  H     -277.795     288.248    -134.252
  H     -283.932     283.835    -135.812
  H     -278.521     292.151    -138.998
  H     -279.996     285.913    -138.440
  H     -277.192     287.067    -136.294
  H     -280.048     286.717    -135.144
  H     -277.096     292.754    -137.232
  H     -278.955     285.432    -133.358
  H     -276.677     291.573    -136.035
  H     -277.301     284.079    -135.182
  H     -279.286     282.899    -136.102
  H     -279.326     282.971    -134.363
  P     -276.396     285.294    -132.592
  C     -275.111     287.410    -131.825
  O     -275.034     286.044    -132.192
  O     -275.880     283.909    -133.226
  O     -277.357     285.047    -131.466
  H     -276.051     283.177    -132.600
  H     -274.268     287.648    -131.173
  H     -276.040     287.641    -131.306
  H     -275.042     288.032    -132.726
  H     -282.913     281.497    -132.302
  H     -282.472     280.845    -133.862
  H     -283.893     281.850    -133.706

 3  4  5  6  7  8  9  10  11  12  23  26  30  31 0
 6-311+G(2d,p)
 ****
 33  35  36  37  38 0
 6-311+G(2d,p)
 ****
 1  2  13  14  15  16  17  18  19  20  21  22  24  25 0
 3-21G
 ****
 27  28  29  32  34  39  40  41  42  43  44  45  46  47  48  49 0
 3-21G
 ****


