%nproc=1
%NoSave
%Mem=1900MB
#P OB98/GEN NMR

erre ene a

0 1
  C       91.466     319.833     -77.311
  O       92.424     320.868     -77.436
  P       93.467     321.066     -76.237
  C       92.603     323.517     -76.012
  O       92.954     322.307     -75.358
  C       92.229     324.574     -74.974
  O       90.878     324.378     -74.511
  C       93.100     324.532     -73.721
  O       94.358     325.152     -73.939
  C       92.227     325.269     -72.713
  O       92.384     326.690     -72.837
  C       90.807     324.836     -73.147
  N       90.238     323.821     -72.259
  C       89.583     324.304     -71.132
  O       89.493     325.503     -70.868
  N       89.059     323.355     -70.296
  C       89.177     322.000     -70.439
  O       88.732     321.201     -69.623
  C       89.908     321.553     -71.638
  C       90.407     322.465     -72.472
  O       94.778     321.633     -76.960
  O       93.753     319.831     -75.454
  H       91.828     327.094     -72.139
  H       95.578     321.284     -76.516
  H       88.553     323.680     -69.486
  H       90.021     320.485     -71.782
  H       90.961     322.159     -73.349
  H       90.137     325.704     -73.152
  H       92.479     325.011     -71.680
  H       93.229     323.495     -73.388
  H       92.287     325.565     -75.446
  H       91.754     323.342     -76.679
  H       93.453     323.856     -76.614
  P       95.442     325.034     -72.756
  C       95.851     327.612     -72.655
  O       95.393     326.440     -72.003
  O       96.800     325.055     -73.605
  O       95.251     323.815     -71.914
  H       96.728     325.601     -74.403
  H       95.621     327.593     -73.723
  H       96.927     327.704     -72.516
  H       95.355     328.479     -72.205
  H       90.841     319.819     -78.179
  H       90.866     320.006     -76.442
  H       91.967     318.892     -77.217

 3  4  5  6  7  8  9  10  11  12  13  23  28  29  30  31  32 0
 6-311+G(2d,p)
 ****
 33  34 0
 6-311+G(2d,p)
 ****
 1  2  14  15  16  17  18  19  20  21  22  24  25  26 0
 3-21G
 ****
 27  35  36  37  38  39  40  41  42  43  44  45 0
 3-21G
 ****


