%nproc=1
%NoSave
%Mem=1900MB
#P OB98/GEN NMR

erre ene a

0 1
  C      338.354      81.602     140.829
  O      337.218      80.989     140.253
  P      337.465      79.859     139.146
  C      334.897      79.454     139.363
  O      336.032      79.481     138.518
  C      333.735      80.190     138.698
  O      333.512      79.670     137.367
  C      332.407      80.040     139.424
  O      332.329      80.891     140.553
  C      331.405      80.397     138.323
  O      331.248      81.821     138.211
  C      332.099      79.823     137.069
  N      331.494      78.555     136.635
  C      330.794      78.609     135.438
  O      330.642      79.649     134.786
  N      330.223      77.429     135.029
  C      330.256      76.248     135.709
  O      329.670      75.239     135.317
  C      330.998      76.259     136.987
  C      331.574      77.400     137.377
  O      337.856      78.552     140.002
  O      338.518      80.190     138.135
  H      332.119      82.170     137.903
  H      338.532      78.039     139.526
  H      329.729      77.439     134.148
  H      331.039      75.335     137.549
  H      332.111      77.439     138.317
  H      332.031      80.535     136.247
  H      330.416      79.976     138.525
  H      332.261      78.988     139.725
  H      334.003      81.249     138.599
  H      335.141      79.925     140.311
  H      334.622      78.406     139.565
  P      331.552      80.346     141.842
  C      333.344      81.772     143.112
  O      332.011      81.299     143.050
  O      332.335      78.959     142.086
  O      330.082      80.201     141.623
  H      333.265      79.015     141.828
  H      333.750      81.966     142.123
  H      333.957      81.022     143.631
  H      333.355      82.702     143.693
  H      338.040      82.331     141.546
  H      338.929      82.079     140.063
  H      338.953      80.859     141.314

 3  4  5  6  7  8  9  10  11  12  13  23  28  29  30  31  32 0
 6-311+G(2d,p)
 ****
 33  34 0
 6-311+G(2d,p)
 ****
 1  2  14  15  16  17  18  19  20  21  22  24  25  26 0
 3-21G
 ****
 27  35  36  37  38  39  40  41  42  43  44  45 0
 3-21G
 ****


