%nproc=1
%NoSave
%Mem=1900MB
#P OB98/GEN NMR

erre ene a

0 1
  C       98.495     128.069       6.789
  O       98.617     126.662       6.797
  H       99.488     128.507       6.911
  H       97.865     128.396       7.620
  H       98.073     128.418       5.843
  P       97.330     125.773       6.452
  C       97.584     124.081       8.386
  O       96.819     125.141       7.833
  C       96.818     123.392       9.521
  O       96.739     124.313      10.653
  C       95.372     122.996       9.160
  O       95.052     121.832       9.935
  C       94.611     124.215       9.649
  O       93.222     124.006       9.686
  C       95.338     124.447      10.981
  N       95.079     125.731      11.620
  C       94.515     125.716      12.892
  O       94.223     124.699      13.517
  N       94.281     126.946      13.451
  C       94.562     128.154      12.883
  O       94.358     129.223      13.445
  C       95.150     128.103      11.536
  C       95.383     126.914      10.977
  O       97.496     124.798       5.334
  O       96.200     126.859       6.120
  H       96.086     126.929       5.154
  H       93.037     123.167      10.163
  H       93.876     126.955      14.374
  H       95.374     129.044      11.052
  H       95.824     126.844       9.989
  H       95.096     123.641      11.682
  H       94.769     125.052       8.966
  H       95.242     122.775       8.098
  H       97.394     122.523       9.860
  H       98.520     124.501       8.773
  H       97.818     123.358       7.598
  P       94.728     120.399       9.286
  C       92.234     121.057       9.055
  O       93.391     120.541       8.407
  O       94.679     119.284      10.277
  O       95.879     120.157       8.200
  H       96.008     119.199       8.070
  H       91.423     121.097       8.358
  H       92.439     122.041       9.421
  H       91.970     120.420       9.873

 6  7  8  9  10  11  12  13  14  15  16  27  31  32  33  34  35 0
 6-311+G(2d,p)
 ****
 36  37 0
 6-311+G(2d,p)
 ****
 1  2  3  4  5  17  18  19  20  21  22  23  24  25 0
 3-21G
 ****
 26  28  29  30  38  39  40  41  42  43  44  45 0
 3-21G
 ****


