%nproc=1
%NoSave
%Mem=1900MB
#P OB98/GEN NMR

erre ene a

0 1
  C      204.507    -591.990     768.302
  O      204.664    -592.470     766.983
  H      204.362    -590.904     768.266
  H      205.413    -592.201     768.878
  H      203.640    -592.447     768.787
  P      204.496    -594.049     766.757
  C      202.841    -594.093     764.758
  O      203.021    -594.275     766.151
  C      201.682    -593.130     764.488
  O      201.986    -591.849     765.111
  C      201.402    -592.869     763.003
  O      199.987    -592.742     762.804
  C      202.036    -591.512     762.771
  O      201.481    -590.836     761.649
  C      201.765    -590.837     764.114
  N      202.118    -585.936     763.085
  C      201.055    -586.815     762.927
  N      199.933    -586.326     762.349
  N      201.087    -588.062     763.302
  C      202.271    -588.411     763.876
  C      203.393    -587.650     764.085
  C      203.340    -586.270     763.650
  O      204.254    -585.446     763.741
  N      204.404    -588.390     764.642
  C      203.900    -589.615     764.753
  N      202.608    -589.681     764.297
  O      204.383    -594.611     768.252
  O      205.601    -594.706     765.998
  H      201.728    -591.325     760.839
  H      205.267    -594.902     768.563
  H      202.032    -584.988     762.762
  H      204.424    -590.481     765.139
  H      200.724    -590.497     764.190
  H      203.115    -591.631     762.602
  H      199.813    -585.366     762.064
  H      201.790    -593.652     762.333
  H      199.140    -586.949     762.269
  H      200.775    -593.523     764.992
  H      202.608    -595.059     764.293
  H      203.762    -593.702     764.315
  P      199.188    -594.000     762.211
  C      197.369    -594.388     764.041
  O      198.578    -594.844     763.434
  O      200.359    -594.942     761.662
  O      198.220    -593.642     761.129
  H      200.058    -595.411     760.866
  H      197.095    -595.052     764.834
  H      196.589    -594.365     763.309
  H      197.517    -593.404     764.435

 6  7  8  9  10  11  12  13  14  15  26  29  33  34 0
 6-311+G(2d,p)
 ****
 36  38  39  40  41 0
 6-311+G(2d,p)
 ****
 1  2  3  4  5  16  17  18  19  20  21  22  23  24  25 0
 3-21G
 ****
 27  28  30  31  32  35  37  42  43  44  45  46  47 0
 3-21G
 ****
 48  49 0
 3-21G
 ****


