%nproc=1
%NoSave
%Mem=1900MB
#P OB98/GEN NMR

erre ene a

0 1
  C       39.898    -543.776      52.246
  O       40.477    -544.994      51.815
  P       42.026    -544.971      51.394
  C       43.389    -543.684      49.591
  O       42.105    -544.077      50.068
  C       43.268    -542.484      48.660
  O       42.830    -541.332      49.398
  C       44.573    -542.079      48.002
  O       44.879    -542.951      46.926
  C       44.263    -540.651      47.568
  O       43.621    -540.629      46.279
  C       43.297    -540.167      48.673
  N       43.911    -539.199      49.565
  C       44.157    -537.932      49.011
  O       43.880    -537.711      47.831
  N       44.753    -536.974      49.793
  C       45.075    -537.255      51.018
  N       45.655    -536.267      51.751
  C       44.848    -538.582      51.635
  C       44.273    -539.493      50.860
  O       42.279    -546.457      50.861
  O       42.964    -544.590      52.493
  H       43.773    -539.727      45.927
  H       43.222    -546.705      50.961
  H       45.131    -538.761      52.657
  H       44.072    -540.494      51.227
  H       42.407    -539.706      48.230
  H       45.165    -540.043      47.481
  H       45.390    -542.076      48.734
  H       42.501    -542.713      47.903
  H       45.804    -535.372      51.300
  H       43.835    -544.517      49.038
  H       45.920    -536.375      52.720
  H       44.031    -543.452      50.447
  P       46.356    -542.886      46.314
  C       47.587    -540.808      45.448
  O       46.379    -541.547      45.436
  O       46.308    -544.029      45.191
  O       47.495    -543.076      47.262
  H       47.195    -544.153      44.805
  H       47.525    -540.018      44.697
  H       48.435    -541.457      45.207
  H       47.732    -540.348      46.431
  H       38.870    -543.938      52.493
  H       39.967    -543.051      51.462
  H       40.420    -543.419      53.109

 3  4  5  6  7  8  9  10  11  12  13  21  23  27  28  29  30  32 0
 6-311+G(2d,p)
 ****
 34  35 0
 6-311+G(2d,p)
 ****
 1  2  14  15  16  17  18  19  20  22  24  25  26 0
 3-21G
 ****
 31  33  36  37  38  39  40  41  42  43  44  45  46 0
 3-21G
 ****


