%nproc=1
%NoSave
%Mem=1900MB
#P OB98/GEN NMR

erre ene a

0 1
  C        1.460    -124.257     172.472
  O        1.440    -124.451     171.071
  H        0.458    -123.968     172.802
  H        2.160    -123.457     172.726
  H        1.747    -125.181     172.983
  P        2.750    -125.105     170.424
  C        3.773    -122.823     169.633
  O        3.904    -123.983     170.443
  C        5.150    -122.243     169.322
  O        5.035    -121.055     168.512
  C        5.918    -121.769     170.545
  O        6.409    -122.838     171.326
  C        7.015    -120.945     169.887
  O        8.114    -121.763     169.467
  C        6.284    -120.341     168.663
  N        6.090    -118.910     168.804
  C        7.053    -118.110     168.175
  O        7.972    -118.632     167.542
  N        6.970    -116.749     168.315
  C        6.027    -116.231     169.041
  N        6.021    -114.876     169.165
  C        4.994    -117.038     169.720
  C        5.084    -118.360     169.562
  O        2.361    -125.201     168.875
  O        3.167    -126.402     171.031
  H        8.782    -121.154     169.089
  H        1.999    -124.378     168.511
  H        4.221    -116.558     170.302
  H        4.367    -119.027     170.026
  H        6.860    -120.520     167.744
  H        7.422    -120.195     170.569
  H        5.295    -121.090     171.143
  H        5.719    -122.995     168.760
  H        6.781    -114.367     168.729
  H        3.149    -122.074     170.131
  H        5.386    -114.372     169.766
  H        3.265    -123.118     168.710
  P        6.806    -122.629     172.863
  C        9.244    -121.883     172.493
  O        7.938    -121.487     172.899
  O        7.168    -123.873     173.602
  O        5.538    -121.858     173.465
  H        5.340    -121.003     173.044
  H        9.907    -121.046     172.558
  H        9.212    -122.235     171.483
  H        9.594    -122.666     173.133

 6  7  8  9  10  11  12  13  14  15  16  26  30  31  32  33  35 0
 6-311+G(2d,p)
 ****
 37  38 0
 6-311+G(2d,p)
 ****
 1  2  3  4  5  17  18  19  20  21  22  23  24  25 0
 3-21G
 ****
 27  28  29  34  36  39  40  41  42  43  44  45  46 0
 3-21G
 ****


