%nproc=1
%NoSave
%Mem=1900MB
#P OB98/GEN NMR

erre ene a

0 1
  C        6.348      -8.761     -40.377
  O        5.394      -9.790     -40.521
  H        7.129      -9.104     -39.694
  H        5.870      -7.875     -39.950
  H        6.807      -8.505     -41.335
  P        4.398      -9.747     -41.772
  C        2.610      -8.615     -40.295
  O        3.340      -8.566     -41.514
  C        1.588      -7.482     -40.196
  O        2.248      -6.203     -40.312
  C        0.557      -7.529     -41.324
  O       -0.542      -8.395     -41.105
  C        0.103      -6.074     -41.392
  O       -0.944      -5.820     -40.440
  C        1.371      -5.305     -41.014
  N        2.112      -1.232     -44.006
  C        1.237      -1.386     -42.948
  N        0.418      -0.342     -42.695
  N        1.166      -2.471     -42.224
  C        1.978      -3.466     -42.654
  C        2.877      -3.435     -43.697
  C        2.987      -2.208     -44.459
  O        3.740      -2.023     -45.410
  N        3.531      -4.636     -43.833
  C        2.976      -5.411     -42.924
  N        2.047      -4.738     -42.166
  O        3.499     -11.062     -41.583
  O        5.057      -9.734     -43.117
  H       -1.665      -6.455     -40.600
  H        3.164     -11.361     -42.447
  H        2.143      -0.364     -44.511
  H        3.227      -6.453     -42.755
  H        1.148      -4.476     -40.331
  H       -0.299      -5.822     -42.377
  H        0.355       0.465     -43.296
  H        1.042      -7.782     -42.273
  H       -0.405      -0.512     -42.113
  H        1.110      -7.512     -39.210
  H        3.341      -8.530     -39.488
  H        2.118      -9.585     -40.186
  P       -1.369      -8.969     -42.349
  C       -3.188      -7.150     -41.960
  O       -2.316      -7.786     -42.869
  O       -2.384      -9.994     -41.657
  O       -0.545      -9.629     -43.401
  H       -2.030     -10.902     -41.703
  H       -3.743      -6.390     -42.470
  H       -2.618      -6.707     -41.170
  H       -3.864      -7.871     -41.551

 6  7  8  9  10  11  12  13  14  15  26  29  33  34 0
 6-311+G(2d,p)
 ****
 36  38  39  40  41 0
 6-311+G(2d,p)
 ****
 1  2  3  4  5  16  17  18  19  20  21  22  23  24  25 0
 3-21G
 ****
 27  28  30  31  32  35  37  42  43  44  45  46  47 0
 3-21G
 ****
 48  49 0
 3-21G
 ****


