%nproc=1
%NoSave
%Mem=1900MB
#P OB98/GEN NMR

erre ene a

0 1
  C     -245.944       2.911     486.355
  O     -244.611       2.490     486.126
  H     -246.621       2.093     486.083
  H     -246.191       3.779     485.740
  H     -246.088       3.149     487.412
  P     -243.439       3.568     486.302
  C     -243.487       4.358     483.832
  O     -243.721       4.698     485.198
  C     -243.929       5.501     482.921
  O     -245.347       5.722     483.052
  C     -243.265       6.831     483.266
  O     -241.927       6.866     482.810
  C     -244.216       7.806     482.591
  O     -243.954       7.896     481.187
  C     -245.584       7.141     482.865
  N     -246.273       7.713     484.019
  C     -247.164       8.761     483.747
  O     -247.341       9.142     482.595
  N     -247.815       9.351     484.806
  C     -247.611       8.931     486.013
  N     -248.287       9.561     487.010
  C     -246.689       7.822     486.340
  C     -246.058       7.268     485.304
  O     -242.034       3.045     486.299
  O     -243.803       4.304     487.678
  H     -244.416       8.699     480.879
  H     -243.389       3.844     488.431
  H     -246.558       7.501     487.369
  H     -245.364       6.448     485.458
  H     -246.239       7.240     481.989
  H     -244.121       8.808     483.009
  H     -243.312       7.009     484.354
  H     -243.721       5.217     481.882
  H     -248.896      10.325     486.743
  H     -244.069       3.457     483.617
  H     -248.276       9.265     487.978
  H     -242.425       4.132     483.667
  P     -240.823       7.733     483.582
  C     -240.940       9.682     481.891
  O     -241.167       9.263     483.240
  O     -239.405       7.326     483.347
  O     -241.268       7.600     485.123
  H     -241.060       6.709     485.490
  H     -241.205      10.714     481.789
  H     -241.539       9.093     481.229
  H     -239.906       9.553     481.647

 6  7  8  9  10  11  12  13  14  15  16  26  30  31  32  33  35 0
 6-311+G(2d,p)
 ****
 37  38 0
 6-311+G(2d,p)
 ****
 1  2  3  4  5  17  18  19  20  21  22  23  24  25 0
 3-21G
 ****
 27  28  29  34  36  39  40  41  42  43  44  45  46 0
 3-21G
 ****


