%nproc=1
%NoSave
%Mem=1900MB
#P OB98/GEN NMR

erre ene a

0 1
  C      -21.005     168.570     -24.984
  O      -22.099     168.347     -25.880
  P      -22.541     169.565     -26.823
  C      -25.117     169.557     -26.443
  O      -23.876     170.216     -26.222
  C      -26.278     170.466     -26.028
  O      -26.341     170.610     -24.597
  C      -26.151     171.880     -26.566
  O      -26.524     171.931     -27.929
  C      -27.084     172.655     -25.642
  O      -28.426     172.697     -26.156
  C      -27.023     171.847     -24.327
  N      -26.380     172.580     -23.248
  C      -27.122     173.630     -22.695
  O      -28.239     173.902     -23.140
  N      -26.565     174.358     -21.673
  C      -25.368     174.077     -21.260
  N      -24.870     174.838     -20.248
  C      -24.544     172.997     -21.834
  C      -25.106     172.295     -22.817
  O      -23.054     168.833     -28.152
  O      -21.441     170.532     -27.117
  H      -28.918     173.297     -25.558
  H      -22.867     169.383     -28.933
  H      -23.549     172.806     -21.460
  H      -24.573     171.482     -23.298
  H      -28.034     171.581     -23.996
  H      -26.759     173.695     -25.529
  H      -25.121     172.239     -26.438
  H      -27.216     170.014     -26.380
  H      -25.463     175.573     -19.879
  H      -25.154     168.625     -25.876
  H      -23.949     174.712     -19.855
  H      -25.190     169.284     -27.501
  P      -25.404     172.349     -28.994
  C      -25.502     174.783     -28.185
  O      -24.690     173.638     -28.362
  O      -26.284     173.002     -30.166
  O      -24.506     171.272     -29.504
  H      -25.718     173.216     -30.930
  H      -24.960     175.504     -27.565
  H      -26.435     174.520     -27.683
  H      -25.714     175.242     -29.154
  H      -20.819     167.680     -24.420
  H      -21.248     169.371     -24.317
  H      -20.131     168.826     -25.545

 3  4  5  6  7  8  9  10  11  12  13  21  23  27  28  29  30  32 0
 6-311+G(2d,p)
 ****
 34  35 0
 6-311+G(2d,p)
 ****
 1  2  14  15  16  17  18  19  20  22  24  25  26 0
 3-21G
 ****
 31  33  36  37  38  39  40  41  42  43  44  45  46 0
 3-21G
 ****


