%nproc=1
%NoSave
%Mem=1900MB
#P OB98/GEN NMR

erre ene a

0 1
  C        5.736     143.158     -69.538
  O        5.218     144.432     -69.214
  H        6.129     142.699     -68.626
  H        6.552     143.253     -70.258
  H        4.953     142.511     -69.944
  P        4.441     145.259     -70.346
  C        6.683     146.360     -70.990
  O        5.526     145.675     -71.449
  C        7.653     146.576     -72.149
  O        8.266     145.324     -72.527
  C        6.991     147.111     -73.413
  O        6.709     148.492     -73.299
  C        8.039     146.759     -74.456
  O        9.099     147.728     -74.466
  C        8.544     145.391     -73.945
  N        7.944     144.263     -74.656
  C        8.420     144.013     -75.939
  O        9.276     144.707     -76.489
  N        7.856     142.948     -76.588
  C        6.808     142.199     -76.136
  O        6.277     141.311     -76.797
  C        6.328     142.522     -74.786
  C        6.909     143.522     -74.117
  O        3.579     146.373     -69.856
  O        3.575     144.141     -71.100
  H        9.776     147.389     -75.083
  H        2.640     144.219     -70.831
  H        8.179     142.760     -77.524
  H        5.508     141.942     -74.387
  H        6.565     143.779     -73.123
  H        9.634     145.323     -74.054
  H        7.625     146.727     -75.463
  H        6.077     146.545     -73.626
  H        8.450     147.253     -71.812
  H        7.169     145.754     -70.218
  H        6.380     147.318     -70.552
  P        5.490     149.127     -74.119
  C        7.069     149.974     -75.961
  O        5.919     149.190     -75.663
  O        4.940     150.398     -73.563
  O        4.378     147.975     -74.103
  H        3.575     148.307     -73.659
  H        7.259     149.943     -77.014
  H        7.914     149.582     -75.434
  H        6.899     150.986     -75.659

 6  7  8  9  10  11  12  13  14  15  16  26  31  32  33  34  35 0
 6-311+G(2d,p)
 ****
 36  37 0
 6-311+G(2d,p)
 ****
 1  2  3  4  5  17  18  19  20  21  22  23  24  25 0
 3-21G
 ****
 27  28  29  30  38  39  40  41  42  43  44  45 0
 3-21G
 ****


