%nproc=1
%NoSave
%Mem=1900MB
#P OB98/GEN NMR

erre ene a

0 1
  C      430.492    -896.710    -386.445
  O      430.867    -896.320    -387.755
  P      430.508    -894.860    -388.310
  C      427.956    -895.130    -388.611
  O      429.213    -895.010    -389.260
  C      426.815    -895.010    -389.615
  O      426.812    -893.710    -390.235
  C      426.900    -896.000    -390.762
  O      426.573    -897.320    -390.363
  C      425.935    -895.380    -391.770
  O      424.574    -895.710    -391.437
  C      426.208    -893.870    -391.543
  N      427.008    -893.280    -392.608
  C      426.311    -892.600    -393.607
  O      425.087    -892.620    -393.628
  N      427.033    -891.960    -394.584
  C      428.322    -892.090    -394.629
  N      428.995    -891.390    -395.579
  C      429.070    -892.920    -393.661
  C      428.370    -893.470    -392.679
  O      431.627    -894.090    -388.894
  O      429.891    -894.110    -387.028
  H      430.332    -893.240    -386.936
  H      424.433    -895.400    -390.515
  H      430.137    -893.070    -393.793
  H      428.861    -894.090    -391.916
  H      425.253    -893.320    -391.487
  H      426.114    -895.720    -392.794
  H      427.915    -895.990    -391.186
  H      425.869    -895.120    -389.065
  H      428.451    -890.820    -396.195
  H      427.868    -894.320    -387.872
  H      429.982    -891.170    -395.492
  H      427.918    -896.090    -388.082
  P      427.580    -898.490    -390.817
  C      426.792    -898.470    -393.306
  O      426.916    -899.210    -392.109
  O      427.439    -899.570    -389.662
  O      428.995    -898.060    -391.001
  H      428.316    -900.000    -389.501
  H      426.672    -899.180    -394.126
  H      427.696    -897.860    -393.495
  H      425.924    -897.820    -393.231
  H      430.819    -897.712    -386.264
  H      429.428    -896.660    -386.349
  H      430.946    -896.052    -385.733

 3  4  5  6  7  8  9  10  11  12  13  24  27  28  29  30  32 0
 6-311+G(2d,p)
 ****
 34  35 0
 6-311+G(2d,p)
 ****
 1  2  14  15  16  17  18  19  20  21  22  23  25  26 0
 3-21G
 ****
 31  33  36  37  38  39  40  41  42  43  44  45  46 0
 3-21G
 ****


