%nproc=1
%NoSave
%Mem=1900MB
#P OB98/GEN NMR

erre ene a

0 1
  C     -359.674     -36.592    -102.390
  O     -358.605     -35.941    -103.072
  P     -357.261     -35.645    -102.246
  C     -355.565     -36.602    -103.969
  O     -356.041     -35.459    -103.286
  C     -354.522     -36.222    -105.029
  O     -355.160     -35.608    -106.184
  C     -353.459     -35.239    -104.527
  O     -352.243     -35.489    -105.230
  C     -354.011     -33.894    -104.968
  O     -353.002     -32.887    -104.990
  C     -354.591     -34.282    -106.334
  N     -355.499     -30.498    -109.554
  C     -354.339     -31.208    -109.324
  N     -353.268     -30.890    -110.088
  N     -354.232     -32.151    -108.427
  C     -355.394     -32.387    -107.765
  C     -356.607     -31.745    -107.888
  C     -356.699     -30.688    -108.884
  O     -357.697     -30.014    -109.116
  N     -357.539     -32.259    -107.018
  C     -356.890     -33.193    -106.363
  N     -355.598     -33.344    -106.791
  O     -356.947     -37.054    -101.561
  O     -357.402     -34.562    -101.224
  H     -352.832     -32.619    -104.054
  H     -357.122     -37.010    -100.605
  H     -355.524     -29.769    -110.254
  H     -357.299     -33.794    -105.556
  H     -353.816     -34.330    -107.118
  H     -354.810     -33.570    -104.288
  H     -353.298     -30.210    -110.837
  H     -353.271     -35.279    -103.444
  H     -352.424     -31.432    -109.970
  H     -354.034     -37.141    -105.389
  H     -356.398     -37.123    -104.456
  H     -355.151     -37.306    -103.238
  P     -351.033     -36.128    -104.387
  C     -350.397     -37.570    -106.460
  O     -349.972     -36.664    -105.466
  O     -351.667     -37.470    -103.791
  O     -350.470     -35.245    -103.318
  H     -351.191     -37.737    -102.975
  H     -350.511     -37.039    -107.398
  H     -351.356     -38.048    -106.196
  H     -349.646     -38.349    -106.578
  H     -360.498     -36.723    -103.060
  H     -359.983     -35.994    -101.558
  H     -359.344     -37.548    -102.040

 3  4  5  6  7  8  9  10  11  12  23  26  30  31 0
 6-311+G(2d,p)
 ****
 33  35  36  37  38 0
 6-311+G(2d,p)
 ****
 1  2  13  14  15  16  17  18  19  20  21  22  24  25 0
 3-21G
 ****
 27  28  29  32  34  39  40  41  42  43  44  45  46  47  48  49 0
 3-21G
 ****


