%nproc=1
%NoSave
%Mem=1900MB
#P OB98/GEN NMR

erre ene a

0 1
  C     -179.320     444.863     205.770
  O     -177.957     444.633     206.067
  H     -179.609     444.316     204.867
  H     -179.926     444.509     206.607
  H     -179.496     445.932     205.629
  P     -176.906     444.988     204.906
  C     -175.440     446.417     206.495
  O     -176.231     446.386     205.317
  C     -174.024     446.875     206.165
  O     -174.057     448.155     205.498
  C     -173.120     447.081     207.375
  O     -172.613     445.850     207.873
  C     -172.023     447.939     206.764
  O     -171.092     447.098     206.050
  C     -172.798     448.820     205.777
  N     -172.359     453.852     204.860
  C     -171.974     452.771     204.149
  N     -172.114     451.465     204.457
  C     -172.742     451.320     205.638
  C     -173.189     452.327     206.472
  C     -172.974     453.646     206.047
  N     -173.357     454.747     206.788
  N     -173.797     451.797     207.589
  C     -173.715     450.490     207.436
  N     -173.078     450.153     206.271
  O     -177.839     445.379     203.663
  O     -175.954     443.894     204.551
  H     -170.352     447.674     205.780
  H     -177.414     445.073     202.842
  H     -171.491     452.986     203.196
  H     -174.104     449.761     208.133
  H     -172.268     448.915     204.821
  H     -171.450     448.496     207.509
  H     -173.632     447.651     208.159
  H     -173.585     446.146     205.471
  H     -175.399     445.414     206.933
  H     -173.354     455.649     206.349
  H     -173.821     454.579     207.676
  H     -175.905     447.102     207.213
  P     -172.157     445.804     209.413
  C     -174.051     444.237     210.248
  O     -173.498     445.550     210.250
  O     -171.809     447.336     209.732
  O     -171.009     444.900     209.713
  H     -171.166     447.383     210.466
  H     -174.938     444.223     210.846
  H     -173.338     443.549     210.652
  H     -174.292     443.953     209.245

 6  7  8  9  10  11  12  13  14  15  25  28  32  33  34  35 0
 6-311+G(2d,p)
 ****
 36  39  40 0
 6-311+G(2d,p)
 ****
 1  2  3  4  5  16  17  18  19  20  21  22  23  24 0
 3-21G
 ****
 26  27  29  30  31  37  38  41  42  43  44  45  46  47  48 0
 3-21G
 ****


