%nproc=1
%NoSave
%Mem=1900MB
#P OB98/GEN NMR

erre ene a

0 1
  C      -84.734    -367.840    -121.994
  O      -83.879    -367.465    -123.057
  P      -83.929    -368.254    -124.461
  C      -81.455    -368.911    -124.122
  O      -82.415    -368.311    -124.998
  C      -80.058    -368.788    -124.721
  O      -79.911    -369.632    -125.889
  C      -79.713    -367.388    -125.219
  O      -79.611    -366.361    -124.262
  C      -78.490    -367.661    -126.069
  O      -77.316    -367.780    -125.261
  C      -78.840    -369.043    -126.685
  N      -79.234    -368.931    -128.093
  C      -78.197    -368.821    -129.008
  O      -77.002    -368.825    -128.694
  N      -78.569    -368.685    -130.324
  C      -79.843    -368.593    -130.794
  O      -80.098    -368.419    -131.990
  C      -80.901    -368.699    -129.774
  C      -80.559    -368.863    -128.499
  O      -84.931    -367.732    -125.450
  O      -84.196    -369.771    -124.028
  H      -77.106    -366.885    -124.920
  H      -83.510    -370.162    -123.436
  H      -77.820    -368.593    -130.999
  H      -81.939    -368.649    -130.124
  H      -81.330    -368.945    -127.716
  H      -77.993    -369.735    -126.624
  H      -78.300    -366.880    -126.800
  H      -80.514    -367.068    -125.902
  H      -79.339    -369.134    -123.979
  H      -81.706    -369.961    -124.003
  H      -81.512    -368.445    -123.129
  P      -80.321    -364.919    -124.442
  C      -78.066    -363.646    -124.649
  O      -79.295    -363.803    -123.950
  O      -81.745    -364.803    -123.975
  O      -80.267    -364.735    -126.032
  H      -81.044    -364.213    -126.309
  H      -77.478    -362.872    -124.162
  H      -78.256    -363.325    -125.679
  H      -77.494    -364.569    -124.630
  H      -84.555    -367.205    -121.152
  H      -84.540    -368.856    -121.722
  H      -85.753    -367.742    -122.305

 3  4  5  6  7  8  9  10  11  12  13  23  28  29  30  31  32 0
 6-311+G(2d,p)
 ****
 33  34 0
 6-311+G(2d,p)
 ****
 1  2  14  15  16  17  18  19  20  21  22  24  25  26  27 0
 3-21G
 ****
 35  36  37  38  39  40  41  42  43  44  45 0
 3-21G
 ****


