%nproc=1
%NoSave
%Mem=1900MB
#P OB98/GEN NMR

erre ene a

0 1
  C      475.412    -386.491    -157.605
  O      475.062    -386.523    -156.235
  H      475.146    -387.439    -158.084
  H      474.859    -385.683    -158.092
  H      476.485    -386.304    -157.717
  P      475.793    -387.627    -155.334
  C      477.504    -386.272    -153.931
  O      477.280    -387.082    -155.075
  C      479.001    -386.159    -153.650
  O      479.534    -387.446    -153.280
  C      479.835    -385.691    -154.836
  O      479.774    -384.284    -155.003
  C      481.222    -386.140    -154.401
  O      481.760    -385.203    -153.447
  C      480.921    -387.480    -153.713
  N      484.115    -391.268    -154.991
  C      484.178    -390.322    -154.031
  N      483.279    -389.359    -153.736
  C      482.212    -389.446    -154.549
  C      481.993    -390.369    -155.559
  C      483.012    -391.314    -155.779
  N      482.962    -392.234    -156.814
  N      480.788    -390.133    -156.188
  C      480.296    -389.071    -155.577
  N      481.116    -388.627    -154.577
  O      476.004    -388.842    -156.360
  O      475.041    -388.055    -154.117
  H      482.579    -385.599    -153.100
  H      475.284    -389.488    -156.242
  H      485.072    -390.336    -153.417
  H      479.356    -388.594    -155.827
  H      481.532    -387.632    -152.816
  H      481.936    -386.205    -155.226
  H      479.562    -386.219    -155.757
  H      479.131    -385.483    -152.795
  H      477.005    -386.722    -153.062
  H      483.880    -392.510    -157.153
  H      482.256    -392.044    -157.509
  H      477.076    -385.282    -154.114
  P      479.567    -383.713    -156.490
  C      477.197    -382.694    -156.664
  O      478.001    -383.854    -156.816
  O      480.250    -384.846    -157.397
  O      480.169    -382.378    -156.750
  H      480.940    -384.441    -157.959
  H      476.183    -382.928    -156.912
  H      477.555    -381.924    -157.315
  H      477.247    -382.356    -155.650

 6  7  8  9  10  11  12  13  14  15  25  28  32  33  34  35 0
 6-311+G(2d,p)
 ****
 36  39  40 0
 6-311+G(2d,p)
 ****
 1  2  3  4  5  16  17  18  19  20  21  22  23  24 0
 3-21G
 ****
 26  27  29  30  31  37  38  41  42  43  44  45  46  47  48 0
 3-21G
 ****


