%nproc=1
%NoSave
%Mem=1900MB
#P OB98/GEN NMR

erre ene a

0 1
  C     -898.320     520.200    -114.722
  O     -899.000     519.638    -113.615
  H     -898.800     519.848    -115.644
  H     -897.280     519.883    -114.726
  H     -898.380     521.287    -114.690
  P     -898.400     519.946    -112.165
  C     -897.820     517.435    -111.774
  O     -897.350     518.784    -111.839
  C     -896.640     516.477    -111.775
  O     -896.070     516.407    -113.103
  C     -895.490     516.904    -110.861
  O     -895.740     516.607    -109.500
  C     -894.340     516.086    -111.432
  O     -894.320     514.760    -110.892
  C     -894.660     516.077    -112.942
  N     -893.800     516.986    -113.689
  C     -892.630     516.427    -114.210
  O     -892.350     515.232    -114.084
  N     -891.800     517.270    -114.874
  C     -891.980     518.620    -115.013
  O     -891.170     519.349    -115.568
  C     -893.220     519.171    -114.415
  C     -894.050     518.336    -113.790
  O     -899.630     519.633    -111.188
  O     -897.870     521.336    -111.978
  H     -900.000     520.469    -110.846
  H     -894.520     514.851    -109.938
  H     -890.970     516.882    -115.271
  H     -893.390     520.236    -114.514
  H     -894.960     518.722    -113.333
  H     -894.540     515.069    -113.352
  H     -893.380     516.555    -111.211
  H     -895.270     517.974    -110.999
  H     -896.990     515.483    -111.501
  H     -898.450     517.230    -112.642
  H     -898.420     517.324    -110.871
  P     -894.740     517.229    -108.400
  C     -893.860     514.950    -107.405
  O     -893.600     516.112    -108.186
  O     -895.640     517.140    -107.092
  O     -894.250     518.595    -108.767
  H     -896.300     516.436    -107.151
  H     -892.986     514.333    -107.381
  H     -894.671     514.403    -107.839
  H     -894.119     515.241    -106.408

 6  7  8  9  10  11  12  13  14  15  16  27  31  32  33  34  35 0
 6-311+G(2d,p)
 ****
 36  37 0
 6-311+G(2d,p)
 ****
 1  2  3  4  5  17  18  19  20  21  22  23  24  25 0
 3-21G
 ****
 26  28  29  30  38  39  40  41  42  43  44  45 0
 3-21G
 ****


