%nproc=1
%NoSave
%Mem=1900MB
#P OB98/GEN NMR

erre ene a

0 1
  C      -51.583      24.238     -50.782
  O      -51.702      23.686     -49.487
  H      -52.380      24.972     -50.926
  H      -51.684      23.455     -51.539
  H      -50.616      24.736     -50.892
  P      -50.678      22.503     -49.120
  C      -48.182      22.609     -48.369
  O      -49.258      23.249     -49.039
  C      -46.856      23.082     -48.957
  O      -46.707      22.615     -50.315
  C      -46.712      24.597     -49.030
  O      -46.375      25.181     -47.783
  C      -45.581      24.716     -50.034
  O      -44.332      24.396     -49.394
  C      -45.975      23.627     -51.058
  N      -46.787      24.142     -52.161
  C      -46.124      24.376     -53.372
  O      -44.918      24.163     -53.478
  N      -46.840      24.881     -54.432
  C      -48.108      25.121     -54.299
  N      -48.764      25.633     -55.376
  C      -48.847      24.873     -53.049
  C      -48.135      24.391     -52.034
  O      -50.557      21.673     -50.484
  O      -51.028      21.679     -47.927
  H      -44.464      23.555     -48.920
  H      -49.849      20.990     -50.398
  H      -49.902      25.099     -52.983
  H      -48.612      24.186     -51.082
  H      -45.085      23.143     -51.476
  H      -45.482      25.719     -50.451
  H      -47.607      25.068     -49.453
  H      -46.046      22.633     -48.367
  H      -48.218      25.850     -56.199
  H      -48.289      21.527     -48.498
  H      -49.698      26.017     -55.312
  H      -48.210      22.847     -47.301
  P      -46.675      26.747     -47.588
  C      -48.854      28.155     -47.706
  O      -48.141      27.021     -48.180
  O      -45.711      27.434     -48.663
  O      -46.436      27.268     -46.206
  H      -45.324      28.259     -48.313
  H      -49.807      28.204     -48.189
  H      -48.298      29.043     -47.924
  H      -48.994      28.072     -46.648

 6  7  8  9  10  11  12  13  14  15  16  26  30  31  32  33  35 0
 6-311+G(2d,p)
 ****
 37  38 0
 6-311+G(2d,p)
 ****
 1  2  3  4  5  17  18  19  20  21  22  23  24  25 0
 3-21G
 ****
 27  28  29  34  36  39  40  41  42  43  44  45  46 0
 3-21G
 ****


