%nproc=1
%NoSave
%Mem=1900MB
#P OB98/GEN NMR

erre ene a

0 1
  C       60.408     449.409    -261.567
  O       60.049     450.387    -260.602
  P       59.740     449.877    -259.108
  C       57.219     450.486    -259.014
  O       58.535     450.781    -258.562
  C       56.302     451.711    -258.905
  O       55.923     451.887    -257.516
  C       56.943     453.013    -259.391
  O       55.920     453.784    -260.037
  C       57.348     453.711    -258.104
  O       57.444     455.122    -258.282
  C       56.239     453.246    -257.152
  N       56.639     453.346    -255.749
  C       56.295     454.520    -255.072
  O       55.753     455.442    -255.679
  N       56.622     454.635    -253.741
  C       57.328     453.713    -253.172
  N       57.622     453.875    -251.851
  C       57.816     452.513    -253.887
  C       57.418     452.385    -255.148
  O       61.009     450.413    -258.287
  O       59.562     448.401    -258.981
  H       57.476     455.545    -257.393
  H       61.223     449.809    -257.551
  H       58.429     451.789    -253.371
  H       57.714     451.525    -255.746
  H       55.327     453.851    -257.294
  H       58.324     453.336    -257.770
  H       57.770     452.849    -260.084
  H       55.386     451.500    -259.464
  H       57.289     454.711    -251.391
  H       56.795     449.692    -258.394
  H       58.167     453.201    -251.325
  H       57.260     450.128    -260.050
  P       55.853     453.736    -261.640
  C       57.185     455.908    -262.008
  O       55.924     455.270    -262.100
  O       54.308     453.396    -261.885
  O       56.739     452.775    -262.357
  H       54.146     453.278    -262.838
  H       57.120     456.894    -262.479
  H       57.951     455.317    -262.524
  H       57.461     456.040    -260.955
  H       60.584     449.885    -262.509
  H       59.613     448.700    -261.669
  H       61.297     448.905    -261.250

 3  4  5  6  7  8  9  10  11  12  13  21  23  27  28  29  30  32 0
 6-311+G(2d,p)
 ****
 34  35 0
 6-311+G(2d,p)
 ****
 1  2  14  15  16  17  18  19  20  22  24  25  26 0
 3-21G
 ****
 31  33  36  37  38  39  40  41  42  43  44  45  46 0
 3-21G
 ****


