%nproc=1
%NoSave
%Mem=1900MB
#P OB98/GEN NMR

erre ene a

0 1
  C      117.330    -144.572     342.942
  O      116.481    -143.673     342.265
  H      118.132    -144.003     343.418
  H      117.778    -145.276     342.236
  H      116.778    -145.116     343.716
  P      115.228    -144.241     341.435
  C      112.706    -143.789     341.562
  O      114.003    -143.257     341.784
  C      111.632    -142.916     342.217
  O      111.777    -142.974     343.664
  C      111.700    -141.437     341.802
  O      110.398    -140.964     341.463
  C      112.184    -140.735     343.066
  O      111.816    -139.363     343.118
  C      111.571    -141.632     344.147
  N      112.176    -141.411     345.454
  C      111.938    -140.166     346.046
  O      111.246    -139.327     345.460
  N      112.533    -139.880     347.242
  C      113.337    -140.740     347.789
  N      113.916    -140.380     348.961
  C      113.637    -142.057     347.185
  C      113.027    -142.330     346.034
  O      114.952    -145.694     341.647
  O      115.551    -143.882     339.910
  H      110.837    -139.307     343.151
  H      115.038    -144.482     339.321
  H      114.316    -142.740     347.678
  H      113.186    -143.269     345.519
  H      110.487    -141.463     344.230
  H      113.279    -140.797     343.114
  H      112.377    -141.261     340.965
  H      110.648    -143.347     341.992
  H      113.688    -139.466     349.334
  H      112.671    -144.810     341.972
  H      114.572    -140.958     349.463
  H      112.525    -143.830     340.480
  P      110.158    -140.590     339.919
  C      108.344    -141.248     338.183
  O      108.646    -140.975     339.543
  O      111.042    -141.666     339.136
  O      110.565    -139.196     339.578
  H      111.811    -141.230     338.727
  H      107.305    -141.487     338.089
  H      108.933    -142.076     337.846
  H      108.567    -140.387     337.588

 6  7  8  9  10  11  12  13  14  15  16  26  30  31  32  33  35 0
 6-311+G(2d,p)
 ****
 37  38 0
 6-311+G(2d,p)
 ****
 1  2  3  4  5  17  18  19  20  21  22  23  24  25 0
 3-21G
 ****
 27  28  29  34  36  39  40  41  42  43  44  45  46 0
 3-21G
 ****


