%nproc=1
%NoSave
%Mem=1900MB
#P OB98/GEN NMR

erre ene a

0 1
  C      172.615     206.304    -170.454
  O      171.643     205.847    -171.377
  P      170.926     206.948    -172.300
  C      169.315     205.189    -173.338
  O      169.451     206.388    -172.582
  C      167.923     204.595    -173.146
  O      167.801     204.047    -171.820
  C      166.795     205.602    -173.278
  O      166.544     205.892    -174.638
  C      165.656     204.874    -172.579
  O      164.964     204.001    -173.487
  C      166.394     204.059    -171.488
  N      166.168     204.582    -170.152
  C      165.509     203.720    -169.266
  O      165.143     202.605    -169.644
  N      165.248     204.160    -167.991
  C      165.608     205.355    -167.638
  N      165.329     205.736    -166.361
  C      166.286     206.300    -168.546
  C      166.526     205.855    -169.780
  O      171.667     206.780    -173.708
  O      171.005     208.345    -171.779
  H      164.724     204.555    -174.257
  H      171.638     207.613    -174.215
  H      166.562     207.286    -168.202
  H      167.017     206.485    -170.512
  H      166.065     203.013    -171.506
  H      164.912     205.567    -172.178
  H      167.035     206.523    -172.731
  H      167.797     203.775    -173.867
  H      164.857     205.068    -165.763
  H      170.060     204.464    -173.001
  H      165.586     206.635    -165.983
  H      169.498     205.415    -174.394
  P      165.409     206.969    -174.974
  C      165.665     205.902    -177.292
  O      164.769     206.476    -176.360
  O      166.270     208.239    -175.434
  O      164.446     207.308    -173.884
  H      165.685     209.005    -175.574
  H      165.088     205.471    -178.113
  H      166.254     205.110    -176.822
  H      166.329     206.673    -177.695
  H      173.009     205.472    -169.909
  H      172.163     206.995    -169.773
  H      173.408     206.791    -170.983

 3  4  5  6  7  8  9  10  11  12  13  21  23  27  28  29  30  32 0
 6-311+G(2d,p)
 ****
 34  35 0
 6-311+G(2d,p)
 ****
 1  2  14  15  16  17  18  19  20  22  24  25  26 0
 3-21G
 ****
 31  33  36  37  38  39  40  41  42  43  44  45  46 0
 3-21G
 ****


