%nproc=1
%NoSave
%Mem=1900MB
#P OB98/GEN NMR

erre ene a

0 1
  C      -34.960      10.083     106.960
  O      -35.854       9.248     106.244
  P      -36.400       9.795     104.837
  C      -38.706      10.341     105.920
  O      -37.594      10.812     105.166
  C      -39.232      11.449     106.831
  O      -38.132      12.214     107.365
  C      -40.132      12.463     106.138
  O      -41.428      11.931     105.915
  C      -40.081      13.613     107.140
  O      -40.957      13.343     108.245
  C      -38.614      13.566     107.605
  N      -37.999      18.473     106.277
  C      -38.977      17.840     106.964
  N      -39.080      16.526     107.257
  C      -38.031      15.847     106.769
  C      -36.972      16.351     106.032
  C      -36.974      17.733     105.787
  N      -35.977      18.373     105.081
  N      -36.094      15.346     105.680
  C      -36.610      14.254     106.210
  N      -37.770      14.507     106.890
  O      -37.154       8.526     104.223
  O      -35.347      10.324     103.913
  H      -41.871      13.332     107.897
  H      -37.070       8.509     103.249
  H      -39.781      18.472     107.329
  H      -36.177      13.265     106.133
  H      -38.506      13.770     108.675
  H      -40.380      14.575     106.709
  H      -39.693      12.781     105.184
  H      -39.760      10.977     107.668
  H      -38.395       9.493     106.538
  H      -36.134      19.338     104.824
  H      -35.296      17.804     104.600
  H      -39.482      10.001     105.229
  P      -41.894      11.746     104.388
  C      -43.979      13.159     104.906
  O      -42.811      13.038     104.112
  O      -42.972      10.573     104.520
  O      -40.790      11.512     103.418
  H      -43.612      10.742     105.235
  H      -44.476      14.099     104.653
  H      -43.716      13.169     105.968
  H      -44.661      12.330     104.696
  H      -34.676       9.602     107.872
  H      -35.441      11.013     107.182
  H      -34.089      10.265     106.366

 3  4  5  6  7  8  9  10  11  12  22  25  29  30  31  32 0
 6-311+G(2d,p)
 ****
 33  36  37 0
 6-311+G(2d,p)
 ****
 1  2  13  14  15  16  17  18  19  20  21  23  24  26 0
 3-21G
 ****
 27  28  34  35  38  39  40  41  42  43  44  45  46  47  48 0
 3-21G
 ****


