%nproc=1
%NoSave
%Mem=1900MB
#P OB98/GEN NMR

erre ene a

0 1
  C     -103.259     -24.468      28.716
  O     -103.142     -25.798      29.238
  P     -104.356     -26.846      29.235
  C     -103.891     -27.949      26.950
  O     -103.948     -28.126      28.363
  C     -104.235     -29.243      26.205
  O     -104.387     -28.991      24.795
  C     -103.184     -30.340      26.309
  O     -103.228     -30.972      27.576
  C     -103.574     -31.232      25.135
  O     -104.649     -32.117      25.492
  C     -104.039     -30.198      24.090
  N     -103.034     -29.948      23.065
  C     -102.963     -30.873      22.020
  O     -103.684     -31.871      22.020
  N     -102.056     -30.655      21.011
  C     -101.244     -29.648      21.080
  N     -100.373     -29.479      20.049
  C     -101.224     -28.701      22.211
  C     -102.138     -28.908      23.156
  O     -105.673     -26.248      28.858
  O     -104.414     -27.418      30.730
  H     -104.355     -32.603      26.286
  H     -105.336     -27.647      30.949
  H     -100.512     -27.891      22.244
  H     -102.199     -28.254      24.018
  H     -104.960     -30.538      23.600
  H     -102.745     -31.857      24.789
  H     -102.188     -29.917      26.129
  H     -105.201     -29.602      26.587
  H     -100.416     -30.142      19.286
  H     -102.875     -27.639      26.684
  H      -99.701     -28.727      20.004
  H     -104.587     -27.153      26.667
  P     -101.923     -30.988      28.502
  C     -102.056     -28.682      29.621
  O     -102.227     -30.078      29.784
  O     -100.633     -30.698      27.809
  O     -101.916     -32.469      29.120
  H     -100.993     -32.746      29.266
  H     -102.653     -28.165      30.376
  H     -102.378     -28.358      28.628
  H     -101.002     -28.428      29.764
  H     -102.325     -23.958      28.826
  H     -104.019     -23.940      29.253
  H     -103.520     -24.513      27.679

 3  4  5  6  7  8  9  10  11  12  13  23  27  28  29  30  32 0
 6-311+G(2d,p)
 ****
 34  35 0
 6-311+G(2d,p)
 ****
 1  2  14  15  16  17  18  19  20  21  22  24  25  26 0
 3-21G
 ****
 31  33  36  37  38  39  40  41  42  43  44  45  46 0
 3-21G
 ****


