%nproc=1
%NoSave
%Mem=1900MB
#P OB98/GEN NMR

erre ene a

0 1
  C      588.841     330.695     331.212
  O      588.309     331.885     330.648
  P      586.725     332.090     330.699
  C      586.068     332.618     328.242
  O      586.354     333.129     329.533
  C      584.802     333.259     327.666
  O      583.655     332.804     328.438
  C      584.799     334.795     327.687
  O      584.095     335.222     326.522
  C      584.001     335.089     328.950
  O      583.508     336.413     329.026
  C      582.948     333.983     328.863
  N      578.766     334.997     331.636
  C      579.110     335.316     330.364
  N      580.243     335.011     329.695
  C      581.056     334.273     330.466
  C      580.859     333.888     331.776
  C      579.642     334.271     332.377
  N      579.303     333.944     333.664
  N      581.941     333.156     332.249
  C      582.772     333.117     331.226
  N      582.280     333.759     330.125
  O      586.508     332.943     332.034
  O      585.920     330.820     330.700
  H      583.036     336.554     329.869
  H      585.704     332.657     332.506
  H      578.376     335.913     329.822
  H      583.743     332.644     331.253
  H      582.174     334.207     328.113
  H      584.646     334.937     329.823
  H      585.803     335.235     327.689
  H      584.669     332.896     326.633
  H      585.908     331.538     328.311
  H      578.516     334.442     334.064
  H      580.047     333.587     334.265
  H      586.925     332.784     327.581
  P      584.530     336.592     325.806
  C      582.587     337.855     326.924
  O      583.159     337.423     325.703
  O      584.726     336.104     324.299
  O      585.706     337.286     326.405
  H      583.956     335.605     323.977
  H      581.718     338.489     326.705
  H      583.318     338.443     327.500
  H      582.247     336.995     327.507
  H      589.906     330.695     331.106
  H      588.432     329.846     330.705
  H      588.586     330.647     332.250

 3  4  5  6  7  8  9  10  11  12  22  25  29  30  31  32 0
 6-311+G(2d,p)
 ****
 33  36  37 0
 6-311+G(2d,p)
 ****
 1  2  13  14  15  16  17  18  19  20  21  23  24  26 0
 3-21G
 ****
 27  28  34  35  38  39  40  41  42  43  44  45  46  47  48 0
 3-21G
 ****


