%nproc=1
%NoSave
%Mem=1900MB
#P OB98/GEN NMR

erre ene a

0 1
  C     -618.989     303.429     319.051
  O     -620.125     302.682     318.658
  H     -619.279     304.478     319.151
  H     -618.208     303.353     318.294
  H     -618.609     303.079     320.016
  P     -620.012     301.085     318.588
  C     -619.217     301.053     316.130
  O     -618.902     300.745     317.485
  C     -618.719     299.944     315.211
  O     -617.298     299.762     315.374
  C     -619.341     298.581     315.497
  O     -620.661     298.501     314.996
  C     -618.345     297.654     314.817
  O     -618.590     297.595     313.400
  C     -617.008     298.366     315.119
  N     -616.283     297.763     316.243
  C     -615.235     296.904     315.912
  O     -614.935     296.617     314.761
  N     -614.569     296.350     316.974
  C     -614.903     296.480     318.298
  O     -614.325     295.899     319.199
  C     -616.027     297.383     318.581
  C     -616.657     297.978     317.556
  O     -621.303     300.351     318.432
  O     -619.281     300.696     319.960
  H     -617.787     297.210     313.001
  H     -619.933     300.318     320.577
  H     -613.817     295.718     316.759
  H     -616.317     297.528     319.613
  H     -617.496     298.638     317.744
  H     -616.355     298.340     314.237
  H     -618.402     296.635     315.198
  H     -619.325     298.380     316.576
  H     -618.907     300.242     314.175
  H     -618.724     301.996     315.862
  H     -620.303     301.179     316.039
  P     -621.724     297.522     315.684
  C     -622.110     295.359     314.339
  O     -621.301     296.017     315.311
  O     -623.160     297.851     315.435
  O     -621.376     297.613     317.244
  H     -622.157     297.953     317.722
  H     -621.735     294.371     314.173
  H     -622.084     295.909     313.422
  H     -623.118     295.303     314.693

 6  7  8  9  10  11  12  13  14  15  16  26  31  32  33  34  35 0
 6-311+G(2d,p)
 ****
 36  37 0
 6-311+G(2d,p)
 ****
 1  2  3  4  5  17  18  19  20  21  22  23  24  25 0
 3-21G
 ****
 27  28  29  30  38  39  40  41  42  43  44  45 0
 3-21G
 ****


