%nproc=1
%NoSave
%Mem=1900MB
#P OB98/GEN NMR

erre ene a

0 1
  C     -701.153     712.798     -43.924
  O     -699.945     712.642     -43.215
  H     -701.687     713.689     -43.575
  H     -700.925     712.920     -44.984
  H     -701.786     711.910     -43.804
  P     -700.064     712.547     -41.610
  C     -699.456     715.066     -41.430
  O     -700.382     714.039     -41.094
  C     -699.249     715.999     -40.253
  O     -700.486     716.659     -39.914
  C     -698.798     715.312     -38.959
  O     -697.407     715.012     -38.979
  C     -699.132     716.395     -37.940
  O     -698.092     717.384     -37.925
  C     -700.423     716.994     -38.505
  N     -704.220     718.103     -35.222
  C     -703.169     718.828     -35.661
  N     -702.196     718.475     -36.514
  C     -702.386     717.208     -36.962
  C     -703.421     716.351     -36.600
  C     -704.363     716.838     -35.683
  N     -705.430     716.084     -35.230
  N     -703.299     715.149     -37.269
  C     -702.211     715.278     -38.008
  N     -701.636     716.505     -37.855
  O     -698.557     712.305     -41.132
  O     -700.981     711.484     -41.096
  H     -697.280     716.932     -37.610
  H     -698.560     711.709     -40.354
  H     -703.104     719.851     -35.263
  H     -701.836     714.509     -38.675
  H     -700.426     718.085     -38.432
  H     -699.220     716.004     -36.922
  H     -699.399     714.422     -38.757
  H     -698.525     716.779     -40.555
  H     -699.847     715.639     -42.286
  H     -706.171     716.546     -34.742
  H     -705.533     715.139     -35.595
  H     -698.510     714.605     -41.722
  P     -696.905     713.785     -38.096
  C     -696.708     714.976     -35.804
  O     -697.435     714.059     -36.606
  O     -695.325     714.041     -37.975
  O     -697.205     712.431     -38.662
  H     -694.859     713.193     -37.817
  H     -697.174     715.058     -34.844
  H     -696.698     715.935     -36.279
  H     -695.704     714.627     -35.684

 6  7  8  9  10  11  12  13  14  15  25  28  32  33  34  35 0
 6-311+G(2d,p)
 ****
 36  39  40 0
 6-311+G(2d,p)
 ****
 1  2  3  4  5  16  17  18  19  20  21  22  23  24 0
 3-21G
 ****
 26  27  29  30  31  37  38  41  42  43  44  45  46  47  48 0
 3-21G
 ****


