%nproc=1
%NoSave
%Mem=1900MB
#P OB98/GEN NMR

erre ene a

0 1
  C      277.565       3.920      22.562
  O      277.425       2.666      23.209
  H      277.259       4.703      23.259
  H      276.920       3.962      21.679
  H      278.603       4.087      22.276
  P      277.844       1.373      22.356
  C      279.080       0.631      24.521
  O      278.263       0.248      23.420
  C      278.906      -0.363      25.665
  O      279.219      -1.699      25.208
  C      279.833      -0.113      26.848
  O      279.373       0.937      27.677
  C      279.802      -1.476      27.534
  O      278.659      -1.618      28.383
  C      279.708      -2.443      26.345
  N      282.568      -6.647      26.892
  C      281.292      -6.369      27.249
  N      280.590      -5.224      27.051
  C      281.346      -4.318      26.394
  C      282.659      -4.460      25.975
  C      283.280      -5.689      26.247
  N      284.587      -5.966      25.914
  N      283.111      -3.298      25.377
  C      282.081      -2.479      25.428
  N      280.998      -3.051      26.032
  O      279.239       1.814      21.693
  O      276.859       0.940      21.326
  H      278.935      -1.300      29.264
  H      279.092       2.088      20.771
  H      280.748      -7.172      27.746
  H      282.078      -1.449      25.058
  H      279.001      -3.269      26.533
  H      280.692      -1.613      28.145
  H      280.850       0.090      26.494
  H      277.854      -0.350      25.981
  H      278.782       1.631      24.867
  H      280.127       0.661      24.190
  H      284.991      -6.849      26.204
  H      285.164      -5.229      25.539
  P      280.444       2.030      28.152
  C      278.531       3.523      29.114
  O      279.767       2.874      29.345
  O      280.499       3.080      26.933
  O      281.800       1.483      28.470
  H      281.411       3.402      26.820
  H      278.225       4.034      30.003
  H      277.791       2.797      28.847
  H      278.642       4.229      28.317

 6  7  8  9  10  11  12  13  14  15  25  28  32  33  34  35 0
 6-311+G(2d,p)
 ****
 36  37  40 0
 6-311+G(2d,p)
 ****
 1  2  3  4  5  16  17  18  19  20  21  22  23  24 0
 3-21G
 ****
 26  27  29  30  31  38  39 41  42  43  44  45  46  47  48 0
 3-21G
 ****


