%nproc=1
%NoSave
%Mem=1900MB
#P OB98/GEN NMR

erre ene a

0 1
  C      -26.399     -11.459      24.510
  O      -26.025     -11.288      25.861
  H      -27.250     -10.807      24.296
  H      -26.695     -12.495      24.326
  H      -25.571     -11.185      23.852
  P      -24.823     -12.203      26.400
  C      -22.239     -12.102      26.150
  O      -23.504     -11.737      25.615
  C      -21.190     -12.076      25.045
  O      -21.556     -13.003      23.998
  C      -21.044     -10.726      24.358
  O      -20.282      -9.812      25.126
  C      -20.351     -11.132      23.068
  O      -18.931     -11.248      23.247
  C      -20.986     -12.508      22.769
  N      -21.972     -12.437      21.697
  C      -21.458     -12.280      20.414
  O      -20.254     -12.202      20.175
  N      -22.380     -12.175      19.409
  C      -23.735     -12.173      19.564
  O      -24.507     -12.002      18.630
  C      -24.221     -12.357      20.942
  C      -23.332     -12.469      21.931
  O      -25.152     -13.639      25.775
  O      -24.683     -12.252      27.884
  H      -25.536     -14.218      26.459
  H      -18.797     -11.936      23.927
  H      -22.027     -12.050      18.474
  H      -25.293     -12.367      21.099
  H      -23.667     -12.584      22.957
  H      -20.213     -13.227      22.469
  H      -20.511     -10.399      22.279
  H      -22.030     -10.315      24.115
  H      -20.230     -12.400      25.469
  H      -22.296     -13.113      26.565
  H      -21.978     -11.406      26.954
  P      -20.504      -8.242      24.890
  C      -22.602      -6.687      25.166
  O      -22.085      -7.989      24.968
  O      -20.163      -8.111      23.334
  O      -19.687      -7.378      25.789
  H      -20.447      -8.884      22.817
  H      -23.671      -6.727      25.189
  H      -22.286      -6.052      24.365
  H      -22.240      -6.297      26.094

 6  7  8  9  10  11  12  13  14  15  16  27  31  32  33  34  35 0
 6-311+G(2d,p)
 ****
 36  37 0
 6-311+G(2d,p)
 ****
 1  2  3  4  5  17  18  19  20  21  22  23  24  25 0
 3-21G
 ****
 26  28  29  30  38  39  40  41  42  43  44  45 0
 3-21G
 ****


