%nproc=1
%NoSave
%Mem=1900MB
#P OB98/GEN NMR

erre ene a

0 1
  C      257.632    -244.706    -412.782
  O      258.854    -245.026    -412.127
  H      256.815    -244.820    -412.074
  H      257.472    -245.396    -413.621
  H      257.651    -243.675    -413.142
  P      260.200    -244.831    -412.983
  C      260.884    -242.589    -411.865
  O      260.470    -243.249    -413.054
  C      260.846    -241.067    -412.041
  O      259.501    -240.683    -412.479
  C      261.160    -240.271    -410.760
  O      261.860    -239.087    -411.133
  C      259.767    -239.875    -410.264
  O      259.815    -238.744    -409.391
  C      259.067    -239.626    -411.602
  N      255.176    -236.725    -410.254
  C      256.526    -236.434    -410.336
  N      256.905    -235.176    -410.002
  N      257.437    -237.304    -410.698
  C      256.914    -238.510    -411.036
  C      255.604    -238.921    -411.002
  C      254.612    -237.963    -410.557
  O      253.407    -238.164    -410.461
  N      255.492    -240.239    -411.383
  C      256.724    -240.607    -411.656
  N      257.630    -239.587    -411.469
  O      259.734    -245.206    -414.470
  O      261.360    -245.661    -412.533
  H      258.897    -238.488    -409.188
  H      259.916    -246.155    -414.656
  H      254.538    -236.015    -409.942
  H      257.019    -241.606    -412.010
  H      259.351    -238.669    -412.054
  H      259.296    -240.709    -409.719
  H      256.257    -234.456    -409.751
  H      261.737    -240.829    -410.011
  H      257.888    -234.945    -410.089
  H      261.528    -240.807    -412.853
  H      261.915    -242.894    -411.639
  H      260.229    -242.894    -411.040
  P      263.467    -239.143    -411.180
  C      263.751    -238.391    -413.656
  O      263.920    -239.419    -412.688
  O      263.796    -240.527    -410.442
  O      264.150    -237.980    -410.505
  H      264.665    -240.482    -410.020
  H      264.101    -238.735    -414.607
  H      264.310    -237.528    -413.361
  H      262.714    -238.137    -413.729

 6  7  8  9  10  11  12  13  14  15  26  29  33  34 0
 6-311+G(2d,p)
 ****
 36  38  39  40  41 0
 6-311+G(2d,p)
 ****
 1  2  3  4  5  16  17  18  19  20  21  22  23  24  25 0
 3-21G
 ****
 27  28  30  31  32  35  37  42  43  44  45  46  47 0
 3-21G
 ****
 48  49 0
 3-21G
 ****


