%nproc=1
%NoSave
%Mem=1900MB
#P OB98/GEN NMR

erre ene a

0 1
  C     -970.942    -822.870     179.802
  O     -971.358    -822.283     181.032
  P     -972.697    -822.759     181.786
  C     -973.289    -820.264     181.676
  O     -973.286    -821.455     182.453
  C     -974.391    -819.320     182.160
  O     -975.679    -819.898     181.846
  C     -974.386    -819.033     183.644
  O     -973.354    -818.123     183.991
  C     -975.811    -818.538     183.850
  O     -975.939    -817.174     183.465
  C     -976.620    -819.423     182.874
  N     -977.262    -820.551     183.517
  C     -978.120    -820.261     184.567
  O     -978.347    -819.076     184.918
  N     -978.792    -821.280     185.208
  C     -978.587    -822.500     184.871
  N     -979.295    -823.487     185.492
  C     -977.616    -822.876     183.790
  C     -977.010    -821.873     183.177
  O     -972.504    -823.918     182.711
  O     -973.717    -823.042     180.604
  H     -975.346    -816.650     184.023
  H     -973.668    -823.971     180.250
  H     -977.480    -823.938     183.549
  H     -976.331    -822.056     182.354
  H     -977.377    -818.829     182.353
  H     -976.149    -818.628     184.895
  H     -974.241    -819.982     184.202
  H     -974.319    -818.367     181.571
  H     -980.059    -823.159     186.072
  H     -973.486    -820.548     180.617
  H     -979.415    -824.392     185.059
  H     -972.317    -819.784     181.724
  P     -972.471    -818.474     185.277
  C     -973.529    -816.588     186.721
  O     -972.350    -817.093     186.116
  O     -970.987    -818.676     184.665
  O     -972.929    -819.669     186.058
  H     -970.798    -819.634     184.577
  H     -973.250    -815.812     187.436
  H     -974.068    -817.386     187.256
  H     -974.183    -816.152     185.938
  H     -970.033    -822.409     179.476
  H     -971.701    -822.723     179.062
  H     -970.780    -823.918     179.944

 3  4  5  6  7  8  9  10  11  12  13  23  27  28  29  30  32 0
 6-311+G(2d,p)
 ****
 34  35 0
 6-311+G(2d,p)
 ****
 1  2  14  15  16  17  18  19  20  21  22  24  25  26 0
 3-21G
 ****
 31  33  36  37  38  39  40  41  42  43  44  45  46 0
 3-21G
 ****


