%nproc=1
%NoSave
%Mem=1900MB
#P OB98/GEN NMR

erre ene a

0 1
  C     -259.452    1635.901    -300.668
  O     -258.547    1634.803    -300.780
  P     -257.902    1634.566    -302.236
  C     -255.603    1635.582    -301.599
  O     -256.743    1635.656    -302.447
  C     -254.910    1636.931    -301.469
  O     -254.710    1637.540    -302.786
  C     -255.663    1637.954    -300.628
  O     -254.693    1638.755    -299.941
  C     -256.376    1638.800    -301.661
  O     -256.768    1640.053    -301.132
  C     -255.277    1638.876    -302.717
  N     -255.831    1642.848    -305.791
  C     -255.407    1642.776    -304.487
  N     -255.020    1643.960    -303.915
  N     -255.348    1641.690    -303.793
  C     -255.725    1640.579    -304.488
  C     -256.160    1640.512    -305.800
  C     -256.235    1641.758    -306.541
  O     -256.615    1641.859    -307.705
  N     -256.434    1639.213    -306.156
  C     -256.222    1638.531    -305.055
  N     -255.750    1639.296    -304.032
  O     -259.072    1635.061    -303.225
  O     -257.518    1633.148    -302.499
  H     -257.153    1640.591    -301.848
  H     -259.550    1634.286    -303.580
  H     -255.871    1643.727    -306.290
  H     -256.367    1637.467    -304.953
  H     -254.473    1639.572    -302.446
  H     -257.256    1638.298    -302.062
  H     -254.987    1644.830    -304.413
  H     -256.370    1637.510    -299.900
  H     -254.649    1643.941    -302.978
  H     -253.908    1636.765    -301.042
  H     -254.898    1634.834    -301.987
  H     -255.921    1635.188    -300.614
  P     -254.471    1638.497    -298.382
  C     -251.918    1638.061    -298.332
  O     -253.224    1637.518    -298.229
  O     -255.732    1637.579    -297.994
  O     -254.427    1639.733    -297.548
  H     -256.058    1637.841    -297.099
  H     -251.228    1637.432    -297.783
  H     -251.872    1639.088    -297.944
  H     -251.617    1638.065    -299.385
  H     -259.816    1635.962    -299.664
  H     -260.274    1635.755    -301.337
  H     -258.944    1636.809    -300.919

 3  4  5  6  7  8  9  10  11  12  23  26  30  31 0
 6-311+G(2d,p)
 ****
 33  35  36  37  38 0
 6-311+G(2d,p)
 ****
 1  2  13  14  15  16  17  18  19  20  21  22  24  25 0
 3-21G
 ****
 27  28  29  32  34  39  40  41  42  43  44  45  46  47  48  49 0
 3-21G
 ****


