%nproc=1
%NoSave
%Mem=1900MB
#P OB98/GEN NMR

erre ene a

0 1
  C      808.924    -897.853    -383.681
  O      808.304    -896.923    -384.542
  H      809.330    -897.303    -382.823
  H      809.742    -898.353    -384.187
  H      808.198    -898.583    -383.322
  P      807.681    -897.453    -385.923
  C      805.144    -897.093    -385.609
  O      806.224    -898.033    -385.594
  C      804.801    -896.673    -384.167
  O      805.989    -896.063    -383.584
  C      803.647    -895.653    -384.130
  O      802.591    -896.043    -383.232
  C      804.359    -894.333    -383.815
  O      803.573    -893.373    -383.159
  C      805.608    -894.793    -383.030
  N      806.716    -893.853    -383.101
  C      806.581    -892.643    -382.420
  O      805.592    -892.323    -381.753
  N      807.639    -891.783    -382.517
  C      808.803    -891.993    -383.220
  O      809.714    -891.183    -383.268
  C      808.876    -893.283    -383.918
  C      807.837    -894.133    -383.853
  O      808.559    -898.373    -386.715
  O      807.349    -896.113    -386.742
  H      804.184    -892.683    -382.827
  H      808.042    -895.973    -387.419
  H      807.560    -890.903    -382.024
  H      809.771    -893.483    -384.509
  H      807.868    -895.093    -384.361
  H      805.357    -894.943    -381.974
  H      804.690    -893.903    -384.767
  H      803.155    -895.573    -385.092
  H      804.568    -897.573    -383.583
  H      804.294    -897.583    -386.073
  H      805.423    -896.203    -386.189
  P      801.347    -896.953    -383.659
  C      801.885    -898.963    -382.080
  O      801.734    -898.473    -383.396
  O      800.714    -896.613    -384.990
  O      800.249    -896.633    -382.515
  H      799.375    -896.693    -382.946
  H      802.145    -900.000    -382.113
  H      800.965    -898.842    -381.547
  H      802.660    -898.417    -381.583

 6  7  8  9  10  11  12  13  14  15  16  26  31  32  33  34  35 0
 6-311+G(2d,p)
 ****
 36  37 0
 6-311+G(2d,p)
 ****
 1  2  3  4  5  17  18  19  20  21  22  23  24  25 0
 3-21G
 ****
 27  28  29  30  38  39  40  41  42  43  44  45 0
 3-21G
 ****


