%nproc=1
%NoSave
%Mem=1900MB
#P OB98/GEN NMR

erre ene a

0 1
  C      161.548      31.245    -201.538
  O      161.259      32.184    -200.525
  H      160.756      31.285    -202.290
  H      161.580      30.238    -201.111
  H      162.503      31.466    -202.024
  P      162.415      32.591    -199.496
  C      161.523      34.976    -199.073
  O      161.806      33.702    -198.512
  C      160.893      35.909    -198.033
  O      159.497      35.565    -197.854
  C      161.573      35.731    -196.670
  O      161.527      36.921    -195.887
  C      160.718      34.664    -196.005
  O      160.831      34.665    -194.584
  C      159.329      35.037    -196.526
  N      155.763      32.382    -194.036
  C      156.569      33.403    -193.576
  N      156.422      33.753    -192.278
  N      157.452      34.019    -194.320
  C      157.544      33.517    -195.575
  C      156.819      32.490    -196.136
  C      155.818      31.844    -195.315
  O      155.088      30.919    -195.663
  N      157.208      32.249    -197.431
  C      158.170      33.121    -197.652
  N      158.401      33.924    -196.560
  O      163.438      33.443    -200.389
  O      163.105      31.450    -198.810
  H      160.288      33.929    -194.247
  H      164.331      33.412    -200.006
  H      155.088      31.952    -193.425
  H      158.724      33.220    -198.580
  H      158.884      35.821    -195.903
  H      161.059      33.685    -196.356
  H      155.888      33.196    -191.630
  H      162.610      35.411    -196.770
  H      157.190      34.282    -191.857
  H      160.922      36.947    -198.387
  H      160.827      34.817    -199.905
  H      162.433      35.418    -199.486
  P      162.897      37.730    -195.685
  C      162.056      40.122    -196.362
  O      162.525      39.251    -195.348
  O      163.511      37.793    -197.164
  O      163.834      37.095    -194.714
  H      164.261      37.171    -197.242
  H      161.864      41.087    -195.942
  H      161.153      39.729    -196.781
  H      162.797      40.208    -197.129

 6  7  8  9  10  11  12  13  14  15  26  29  33  34 0
 6-311+G(2d,p)
 ****
 36  38  39  40  41 0
 6-311+G(2d,p)
 ****
 1  2  3  4  5  16  17  18  19  20  21  22  23  24  25 0
 3-21G
 ****
 27  28  30  31  32  35  37  42  43  44  45  46  47 0
 3-21G
 ****
 48  49 0
 3-21G
 ****


