%nproc=1
%NoSave
%Mem=1900MB
#P OB98/GEN NMR

erre ene a

0 1
  C     -534.576    -927.885      91.014
  O     -534.028    -928.072      92.329
  P     -534.772    -927.367      93.555
  C     -533.350    -926.323      95.464
  O     -533.864    -927.541      94.877
  C     -532.555    -926.616      96.744
  O     -533.483    -927.020      97.791
  C     -531.564    -927.788      96.618
  O     -530.235    -927.505      96.183
  C     -531.459    -928.239      98.081
  O     -530.493    -927.404      98.785
  C     -532.848    -928.008      98.637
  N     -535.641    -931.062     101.667
  C     -534.961    -929.908     101.911
  N     -534.248    -929.166     101.035
  C     -534.283    -929.691      99.820
  C     -534.933    -930.839      99.399
  C     -535.641    -931.548     100.399
  N     -536.325    -932.721     100.138
  N     -534.740    -931.072      98.062
  C     -533.949    -930.082      97.669
  N     -533.656    -929.211      98.684
  O     -536.206    -927.690      93.746
  O     -534.578    -925.794      93.223
  H     -530.700    -926.484      98.523
  H     -535.392    -925.319      93.493
  H     -534.992    -929.544     102.934
  H     -533.592    -929.966      96.658
  H     -532.835    -927.590      99.654
  H     -531.093    -929.275      98.173
  H     -531.977    -928.608      96.017
  H     -532.042    -925.723      97.070
  H     -534.191    -925.652      95.703
  H     -536.771    -933.182     100.919
  H     -536.304    -933.115      99.228
  H     -532.749    -925.818      94.700
  P     -529.753    -927.849      94.679
  C     -527.195    -928.357      95.001
  O     -528.199    -927.443      94.638
  O     -530.580    -927.259      93.593
  O     -529.710    -929.450      94.700
  H     -529.010    -929.825      95.254
  H     -526.227    -927.987      94.686
  H     -527.373    -929.323      94.501
  H     -527.196    -928.505      96.089
  H     -533.978    -928.411      90.300
  H     -534.582    -926.842      90.775
  H     -535.577    -928.262      90.988

 3  4  5  6  7  8  9  10  11  12  22  25  29  30  31  32 0
 6-311+G(2d,p)
 ****
 33  36  37 0
 6-311+G(2d,p)
 ****
 1  2  13  14  15  16  17  18  19  20  21  23  24  26 0
 3-21G
 ****
 27  28  34  35  38  39  40  41  42  43  44  45  46  47  48 0
 3-21G
 ****


