%nproc=1
%NoSave
%Mem=1900MB
#P OB98/GEN NMR

erre ene a

0 1
  C      -83.591     -65.833     -42.223
  O      -84.062     -66.381     -40.992
  P      -83.720     -65.808     -39.542
  C      -81.645     -65.889     -37.926
  O      -82.300     -66.387     -39.088
  C      -80.296     -66.596     -37.710
  O      -80.509     -68.041     -37.806
  C      -79.256     -66.219     -38.770
  O      -77.951     -66.007     -38.236
  C      -79.410     -67.324     -39.805
  O      -78.283     -67.459     -40.659
  C      -79.745     -68.532     -38.932
  N      -79.586     -73.034     -41.334
  C      -78.547     -72.251     -40.873
  N      -77.295     -72.712     -41.096
  N      -78.715     -71.106     -40.271
  C      -80.006     -70.721     -40.184
  C      -81.124     -71.406     -40.612
  C      -80.930     -72.697     -41.238
  O      -81.816     -73.442     -41.642
  N      -82.275     -70.706     -40.344
  C      -81.855     -69.594     -39.769
  N      -80.481     -69.559     -39.643
  O      -84.822     -65.869     -38.539
  O      -83.399     -64.250     -39.816
  H      -78.428     -68.249     -41.219
  H      -83.683     -63.768     -39.013
  H      -79.398     -73.921     -41.773
  H      -82.488     -68.795     -39.415
  H      -78.845     -69.020     -38.547
  H      -80.265     -67.061     -40.441
  H      -77.091     -73.524     -41.662
  H      -79.502     -65.256     -39.233
  H      -76.544     -72.036     -40.958
  H      -79.943     -66.373     -36.697
  H      -82.315     -66.099     -37.087
  H      -81.517     -64.809     -37.992
  P      -77.054     -64.685     -38.285
  C      -75.519     -63.480     -39.943
  O      -76.421     -64.550     -39.747
  O      -75.780     -65.017     -37.370
  O      -77.743     -63.450     -37.788
  H      -75.749     -64.397     -36.612
  H      -75.369     -63.335     -41.021
  H      -74.559     -63.719     -39.486
  H      -75.909     -62.552     -39.515
  H      -83.971     -66.411     -43.039
  H      -82.521     -65.856     -42.238
  H      -83.927     -64.821     -42.315

 3  4  5  6  7  8  9  10  11  12  23  26  30  31 0
 6-311+G(2d,p)
 ****
 33  35  36  37  38 0
 6-311+G(2d,p)
 ****
 1  2  13  14  15  16  17  18  19  20  21  22  24  25 0
 3-21G
 ****
 27  28  29  32  34  39  40  41  42  43  44  45  46  47  48  49 0
 3-21G
 ****


