%nproc=1
%NoSave
%Mem=1900MB
#P OB98/GEN NMR

erre ene a

0 1
  C       43.991     319.941     357.423
  O       45.165     320.669     357.720
  H       44.230     318.875     357.427
  H       43.625     320.215     356.430
  H       43.217     320.130     358.170
  P       44.991     322.245     357.967
  C       47.440     322.563     357.155
  O       46.085     322.975     357.042
  C       48.249     323.087     355.972
  O       47.982     322.299     354.788
  C       47.947     324.534     355.595
  O       48.653     325.454     356.415
  C       48.456     324.565     354.164
  O       49.896     324.648     354.168
  C       48.009     323.192     353.642
  N       45.436     324.231     349.394
  C       46.782     324.364     349.671
  N       47.558     324.855     348.680
  N       47.328     324.051     350.821
  C       46.430     323.585     351.724
  C       45.075     323.404     351.564
  C       44.490     323.745     350.290
  O       43.306     323.623     349.983
  N       44.501     322.895     352.703
  C       45.502     322.791     353.555
  N       46.696     323.204     353.013
  O       45.567     322.454     359.450
  O       43.597     322.762     357.849
  H       50.128     325.548     354.468
  H       45.045     323.145     359.895
  H       45.069     324.496     348.498
  H       45.419     322.425     354.569
  H       48.710     322.775     352.913
  H       48.085     325.418     353.602
  H       47.195     325.163     347.789
  H       46.866     324.733     355.603
  H       48.554     324.932     348.847
  H       49.316     322.966     356.213
  H       47.480     321.469     357.165
  H       47.848     322.945     358.094
  P       47.792     326.451     357.337
  C       49.665     328.250     357.178
  O       48.289     327.928     356.957
  O       48.406     326.215     358.793
  O       46.321     326.225     357.303
  H       47.754     326.467     359.479
  H       49.847     329.261     356.880
  H       50.282     327.592     356.603
  H       49.895     328.138     358.217

 6  7  8  9  10  11  12  13  14  15  26  29  33  34 0
 6-311+G(2d,p)
 ****
 36  38  39  40  41 0
 6-311+G(2d,p)
 ****
 1  2  3  4  5  16  17  18  19  20  21  22  23  24  25 0
 3-21G
 ****
 27  28  30  31  32  35  37  42  43  44  45  46  47 0
 3-21G
 ****
 48  49 0
 3-21G
 ****


