%nproc=1
%NoSave
%Mem=1900MB
#P OB98/GEN NMR

erre ene a

0 1
  C      164.597    -212.879    -359.818
  O      164.437    -212.808    -358.416
  H      164.169    -213.822    -360.174
  H      165.664    -212.869    -360.071
  H      164.090    -212.049    -360.321
  P      164.720    -211.416    -357.668
  C      166.617    -212.301    -356.151
  O      165.290    -211.801    -356.216
  C      166.782    -213.199    -354.924
  O      166.453    -212.415    -353.739
  C      165.860    -214.435    -354.936
  O      166.550    -215.522    -354.299
  C      164.712    -213.964    -354.068
  O      163.959    -215.045    -353.561
  C      165.454    -213.154    -353.007
  N      164.545    -212.291    -352.256
  C      164.004    -212.814    -351.096
  O      164.231    -213.956    -350.674
  N      163.104    -212.019    -350.430
  C      162.630    -210.815    -350.879
  O      161.764    -210.181    -350.298
  C      163.201    -210.333    -352.152
  C      164.121    -211.084    -352.771
  O      163.595    -210.435    -357.660
  O      166.026    -210.837    -358.394
  H      163.701    -215.647    -354.288
  H      166.096    -209.868    -358.261
  H      162.712    -212.378    -349.578
  H      162.840    -209.394    -352.544
  H      164.558    -210.765    -353.713
  H      165.978    -213.818    -352.307
  H      164.034    -213.331    -354.646
  H      165.554    -214.731    -355.951
  H      167.839    -213.489    -354.832
  H      167.296    -211.440    -356.085
  H      166.844    -212.862    -357.067
  P      166.916    -216.874    -355.094
  C      166.076    -218.670    -353.463
  O      167.224    -218.066    -354.062
  O      167.965    -216.693    -356.148
  O      165.538    -217.314    -355.781
  H      165.701    -217.566    -356.704
  H      166.388    -219.447    -352.797
  H      165.452    -219.085    -354.227
  H      165.528    -217.931    -352.917

 6  7  8  9  10  11  12  13  14  15  16  26  31  32  33  34  35 0
 6-311+G(2d,p)
 ****
 36  37 0
 6-311+G(2d,p)
 ****
 1  2  3  4  5  17  18  19  20  21  22  23  24  25 0
 3-21G
 ****
 27  28  29  30  38  39  40  41  42  43  44  45 0
 3-21G
 ****


