%nproc=1
%NoSave
%Mem=1900MB
#P OB98/GEN NMR

erre ene a

0 1
  C      -35.952     -14.060     -24.689
  O      -35.948     -13.151     -25.768
  H      -35.852     -15.074     -25.084
  H      -36.894     -13.988     -24.141
  H      -35.114     -13.859     -24.017
  P      -36.059     -11.589     -25.410
  C      -38.606     -11.631     -24.879
  O      -37.285     -11.488     -24.374
  C      -39.630     -11.452     -23.754
  O      -40.962     -11.457     -24.320
  C      -39.566     -12.554     -22.696
  O      -39.681     -11.970     -21.397
  C      -40.767     -13.430     -23.000
  O      -41.233     -14.128     -21.847
  C      -41.753     -12.423     -23.603
  N      -42.723     -13.072     -24.481
  C      -43.949     -13.428     -23.912
  O      -44.167     -13.205     -22.720
  N      -44.877     -14.075     -24.687
  C      -44.585     -14.395     -25.909
  N      -45.538     -15.054     -26.619
  C      -43.286     -14.082     -26.536
  C      -42.415     -13.422     -25.776
  O      -36.648     -10.955     -26.754
  O      -34.794     -10.951     -24.941
  H      -41.479     -13.462     -21.168
  H      -36.570      -9.970     -26.753
  H      -43.083     -14.383     -27.553
  H      -41.435     -13.152     -26.153
  H      -42.297     -11.892     -22.810
  H      -40.490     -14.178     -23.754
  H      -38.644     -13.132     -22.740
  H      -39.483     -10.462     -23.307
  H      -46.412     -15.261     -26.153
  H      -38.713     -12.628     -25.316
  H      -45.408     -15.378     -27.567
  H      -38.778     -10.878     -25.653
  P      -38.465     -12.255     -20.389
  C      -39.540     -14.317     -19.244
  O      -38.479     -13.824     -20.047
  O      -38.937     -11.560     -19.028
  O      -37.153     -11.730     -20.872
  H      -38.515     -10.686     -18.927
  H      -39.419     -15.370     -19.100
  H      -40.474     -14.129     -19.732
  H      -39.528     -13.824     -18.295

 6  7  8  9  10  11  12  13  14  15  16  26  30  31  32  33  35 0
 6-311+G(2d,p)
 ****
 37  38 0
 6-311+G(2d,p)
 ****
 1  2  3  4  5  17  18  19  20  21  22  23  24  25 0
 3-21G
 ****
 27  28  29  34  36  39  40  41  42  43  44  45  46 0
 3-21G
 ****


