%nproc=1
%NoSave
%Mem=1900MB
#P OB98/GEN NMR

erre ene a

0 1
  C     -109.285     365.828     817.709
  O     -110.550     366.130     818.253
  H     -108.747     366.764     817.542
  H     -109.404     365.319     816.751
  H     -108.702     365.205     818.391
  P     -111.438     364.939     818.859
  C     -112.228     366.434     820.816
  O     -112.618     365.637     819.701
  C     -113.243     366.304     821.958
  O     -114.477     366.974     821.577
  C     -113.588     364.852     822.309
  O     -113.891     364.816     823.718
  C     -114.853     364.631     821.495
  O     -115.579     363.513     821.963
  C     -115.531     365.995     821.652
  N     -116.572     366.226     820.645
  C     -117.701     365.415     820.724
  O     -117.836     364.510     821.562
  N     -118.657     365.630     819.769
  C     -118.574     366.516     818.740
  O     -119.443     366.647     817.891
  C     -117.340     367.313     818.681
  C     -116.408     367.135     819.616
  O     -110.686     363.882     819.599
  O     -112.223     364.338     817.599
  H     -116.388     363.385     821.420
  H     -112.393     363.389     817.728
  H     -119.483     365.056     819.817
  H     -117.227     368.019     817.868
  H     -115.486     367.711     819.600
  H     -116.004     366.087     822.642
  H     -114.607     364.448     820.440
  H     -112.795     364.138     822.072
  H     -112.845     366.846     822.835
  H     -112.184     367.481     820.477
  H     -111.234     366.128     821.157
  P     -112.795     364.392     824.809
  C     -113.334     366.255     826.514
  O     -113.317     364.858     826.266
  O     -111.402     364.840     824.488
  O     -112.874     362.800     824.880
  H     -112.004     362.438     825.145
  H     -113.696     366.437     827.504
  H     -113.976     366.735     825.806
  H     -112.343     366.646     826.419

 6  7  8  9  10  11  12  13  14  15  16  26  31  32  33  34  35 0
 6-311+G(2d,p)
 ****
 36  37 0
 6-311+G(2d,p)
 ****
 1  2  3  4  5  17  18  19  20  21  22  23  24  25 0
 3-21G
 ****
 27  28  29  30  38  39  40  41  42  43  44  45 0
 3-21G
 ****


