%nproc=1
%NoSave
%Mem=1900MB
#P OB98/GEN NMR

erre ene a

0 1
  C     -180.767     143.470    -375.151
  O     -179.459     143.904    -374.840
  P     -178.767     145.080    -375.681
  C     -179.097     143.707    -377.840
  O     -178.164     144.368    -376.990
  C     -178.872     144.093    -379.302
  O     -179.149     145.493    -379.500
  C     -177.446     143.879    -379.788
  O     -177.210     142.508    -380.049
  C     -177.419     144.774    -381.021
  O     -177.990     144.109    -382.159
  C     -178.309     145.957    -380.580
  N     -177.527     147.124    -380.194
  C     -176.833     147.766    -381.227
  O     -176.876     147.322    -382.376
  N     -176.069     148.866    -380.921
  C     -175.986     149.272    -379.694
  N     -175.203     150.359    -379.455
  C     -176.674     148.604    -378.571
  C     -177.419     147.548    -378.890
  O     -177.811     145.934    -374.919
  O     -180.018     145.893    -376.265
  H     -177.459     143.297    -382.293
  H     -180.454     146.435    -375.563
  H     -176.567     148.973    -377.563
  H     -177.957     146.997    -378.128
  H     -178.984     146.253    -381.393
  H     -176.401     145.065    -381.296
  H     -176.738     144.259    -379.044
  H     -179.574     143.516    -379.917
  H     -174.724     150.768    -380.246
  H     -180.106     144.000    -377.540
  H     -175.040     150.735    -378.535
  H     -179.000     142.622    -377.707
  P     -176.443     141.610    -378.970
  C     -174.279     142.352    -380.127
  O     -174.989     141.273    -379.553
  O     -177.208     140.440    -378.450
  O     -176.123     142.646    -377.787
  H     -176.325     142.220    -376.930
  H     -173.219     142.086    -380.176
  H     -174.389     143.260    -379.532
  H     -174.645     142.533    -381.142
  H     -181.050     142.684    -374.483
  H     -180.793     143.109    -376.158
  H     -181.448     144.289    -375.048

 3  4  5  6  7  8  9  10  11  12  13  23  27  28  29  30  32 0
 6-311+G(2d,p)
 ****
 34  35 0
 6-311+G(2d,p)
 ****
 1  2  14  15  16  17  18  19  20  21  22  24  25  26 0
 3-21G
 ****
 31  33  36  37  38  39  40  41  42  43  44  45  46 0
 3-21G
 ****


