%nproc=1
%NoSave
%Mem=1900MB
#P OB98/GEN NMR

erre ene a

0 1
  C     -190.237    -496.724       9.236
  O     -190.364    -495.322       9.353
  H     -191.235    -497.155       9.115
  H     -189.789    -497.143      10.141
  H     -189.635    -496.986       8.363
  P     -189.035    -494.446       9.546
  C     -187.073    -494.850      11.189
  O     -188.474    -494.898      10.988
  C     -186.702    -495.592      12.473
  O     -186.811    -497.021      12.304
  C     -185.268    -495.372      12.947
  O     -185.038    -494.094      13.518
  C     -185.158    -496.487      13.969
  O     -185.863    -496.118      15.165
  C     -185.873    -497.643      13.228
  N     -184.942    -498.510      12.505
  C     -184.527    -499.672      13.166
  O     -184.933    -499.929      14.304
  N     -183.632    -500.511      12.542
  C     -183.176    -500.197      11.369
  N     -182.286    -501.061      10.796
  C     -183.566    -498.977      10.645
  C     -184.447    -498.187      11.260
  O     -189.185    -492.973       9.351
  O     -187.964    -495.117       8.561
  H     -185.413    -495.334      15.528
  H     -187.123    -494.604       8.638
  H     -183.137    -498.752       9.681
  H     -184.779    -497.269      10.795
  H     -186.456    -498.249      13.926
  H     -184.126    -496.711      14.259
  H     -184.550    -495.570      12.136
  H     -187.429    -495.297      13.242
  H     -182.037    -501.890      11.319
  H     -186.771    -493.798      11.241
  H     -181.822    -500.865       9.922
  H     -186.559    -495.329      10.352
  P     -183.520    -493.574      13.550
  C     -181.424    -494.189      14.981
  O     -182.829    -494.278      14.810
  O     -183.671    -492.042      13.987
  O     -182.769    -493.732      12.265
  H     -183.630    -491.457      13.209
  H     -181.139    -494.714      15.869
  H     -181.140    -493.161      15.067
  H     -180.934    -494.625      14.136

 6  7  8  9  10  11  12  13  14  15  16  26  30  31  32  33  35 0
 6-311+G(2d,p)
 ****
 37  38 0
 6-311+G(2d,p)
 ****
 1  2  3  4  5  17  18  19  20  21  22  23  24  25 0
 3-21G
 ****
 27  28  29  34  36  39  40  41  42  43  44  45  46 0
 3-21G
 ****


