%nproc=1
%NoSave
%Mem=1900MB
#P OB98/GEN NMR

erre ene a

0 1
  C     -446.270      33.300    -490.188
  O     -447.083      33.151    -491.337
  P     -446.455      33.328    -492.798
  C     -447.240      31.239    -494.074
  O     -446.156      31.872    -493.401
  C     -447.220      29.737    -493.820
  O     -447.093      29.454    -492.409
  C     -448.493      29.017    -494.254
  O     -448.591      28.907    -495.658
  C     -448.347      27.694    -493.508
  O     -447.467      26.807    -494.215
  C     -447.695      28.155    -492.184
  N     -448.645      28.192    -491.081
  C     -448.452      27.243    -490.071
  O     -447.572      26.385    -490.177
  N     -449.265      27.287    -488.966
  C     -450.262      28.115    -488.932
  N     -450.996      28.152    -487.789
  C     -450.596      29.022    -490.051
  C     -449.737      29.024    -491.074
  O     -445.316      34.290    -492.889
  O     -447.690      33.829    -493.691
  H     -447.414      34.623    -494.190
  H     -447.918      26.575    -495.052
  H     -451.478      29.645    -490.004
  H     -449.890      29.672    -491.928
  H     -446.871      27.486    -491.917
  H     -449.302      27.175    -493.388
  H     -449.364      29.557    -493.864
  H     -446.348      29.312    -494.335
  H     -450.732      27.530    -487.037
  H     -447.149      31.437    -495.146
  H     -451.566      28.957    -487.536
  H     -448.187      31.675    -493.726
  P     -450.052      29.073    -496.296
  C     -449.512      31.086    -497.832
  O     -450.224      30.609    -496.708
  O     -451.031      28.901    -495.036
  O     -450.376      28.085    -497.375
  H     -451.838      28.430    -495.312
  H     -449.982      32.006    -498.184
  H     -449.511      30.358    -498.646
  H     -448.480      31.312    -497.540
  H     -446.862      33.146    -489.310
  H     -445.855      34.286    -490.170
  H     -445.479      32.580    -490.215

 3  4  5  6  7  8  9  10  11  12  13  24  27  28  29  30  32 0
 6-311+G(2d,p)
 ****
 34  35 0
 6-311+G(2d,p)
 ****
 1  2  14  15  16  17  18  19  20  21  22  23  25  26 0
 3-21G
 ****
 31  33  36  37  38  39  40  41  42  43  44  45  46 0
 3-21G
 ****


