%nproc=1
%NoSave
%Mem=1900MB
#P OB98/GEN NMR

erre ene a

0 1
  C      428.155    -892.530    -604.423
  O      428.785    -893.750    -604.074
  H      427.954    -892.540    -605.517
  H      428.780    -891.680    -604.190
  H      427.189    -892.460    -603.898
  P      429.275    -893.950    -602.567
  C      428.081    -896.240    -602.354
  O      428.212    -894.910    -601.862
  C      426.980    -896.320    -603.416
  O      427.302    -895.430    -604.528
  C      426.787    -897.750    -604.007
  O      425.426    -897.860    -604.405
  C      427.685    -897.670    -605.250
  O      427.457    -898.710    -606.135
  C      427.361    -896.230    -605.731
  N      428.365    -895.750    -606.676
  C      427.873    -895.010    -607.765
  O      426.659    -894.810    -607.884
  N      428.767    -894.500    -608.683
  C      430.040    -894.800    -608.550
  N      430.857    -894.300    -609.512
  C      430.600    -895.620    -607.460
  C      429.690    -896.070    -606.557
  O      429.598    -892.690    -601.818
  O      430.581    -894.890    -602.706
  H      428.192    -898.790    -606.787
  H      431.393    -894.370    -602.571
  H      431.648    -895.840    -607.432
  H      430.013    -896.680    -605.730
  H      426.382    -896.200    -606.205
  H      428.761    -897.740    -604.967
  H      427.075    -898.540    -603.316
  H      426.047    -895.950    -602.995
  H      430.448    -893.750    -610.252
  H      427.835    -896.890    -601.493
  H      431.859    -894.480    -609.531
  H      429.032    -896.560    -602.798
  P      424.345    -898.630    -603.478
  C      422.412    -896.910    -603.271
  O      423.536    -897.540    -602.623
  O      424.900    -899.730    -602.657
  O      423.251    -899.200    -604.515
  H      422.862    -900.000    -604.158
  H      421.961    -896.209    -602.600
  H      421.694    -897.655    -603.544
  H      422.747    -896.399    -604.149

 6  7  8  9  10  11  12  13  14  15  16  26  30  31  32  33  35 0
 6-311+G(2d,p)
 ****
 37  38 0
 6-311+G(2d,p)
 ****
 1  2  3  4  5  17  18  19  20  21  22  23  24  25 0
 3-21G
 ****
 27  28  29  34  36  39  40  41  42  43  44  45  46 0
 3-21G
 ****


