%nproc=1
%NoSave
%Mem=1900MB
#P OB98/GEN NMR

erre ene a

0 1
  C      146.588     877.527      63.392
  O      146.750     876.420      62.531
  P      146.820     874.938      63.130
  C      149.080     874.511      61.959
  O      147.747     874.046      62.163
  C      149.781     873.664      60.893
  O      149.900     872.285      61.321
  C      149.053     873.614      59.569
  O      149.154     874.829      58.850
  C      149.729     872.410      58.916
  O      150.997     872.794      58.340
  C      149.959     871.483      60.128
  N      149.000     870.386      60.161
  C      149.293     869.295      59.337
  O      150.252     869.322      58.575
  N      148.472     868.191      59.395
  C      147.396     868.230      60.117
  N      146.648     867.086      60.197
  C      146.968     869.425      60.874
  C      147.822     870.452      60.876
  O      145.505     874.322      63.476
  O      147.738     875.094      64.442
  H      147.287     874.670      65.194
  H      150.804     873.174      57.448
  H      146.022     869.430      61.425
  H      147.612     871.363      61.419
  H      150.971     871.070      60.103
  H      149.129     871.980      58.112
  H      147.991     873.375      59.738
  H      150.796     874.069      60.761
  H      146.970     866.288      59.665
  H      149.624     874.438      62.910
  H      146.002     866.911      60.951
  H      149.051     875.565      61.651
  P      147.776     875.580      58.481
  C      148.999     876.010      56.235
  O      148.046     876.468      57.186
  O      147.615     876.644      59.668
  O      146.581     874.681      58.390
  H      146.667     876.748      59.897
  H      148.800     876.520      55.285
  H      148.907     874.929      56.081
  H      149.999     876.256      56.577
  H      146.563     878.427      62.814
  H      147.407     877.567      64.080
  H      145.671     877.426      63.934

 3  4  5  6  7  8  9  10  11  12  13  24  27  28  29  30  32 0
 6-311+G(2d,p)
 ****
 34  35 0
 6-311+G(2d,p)
 ****
 1  2  14  15  16  17  18  19  20  21  22  23  25  26 0
 3-21G
 ****
 31  33  36  37  38  39  40  41  42  43  44  45  46 0
 3-21G
 ****


