%nproc=1
%NoSave
%Mem=1900MB
#P OB98/GEN NMR

erre ene a

0 1
  C      119.589    -415.275     110.518
  O      119.729    -414.551     111.726
  H      119.590    -416.342     110.750
  H      120.423    -415.052     109.848
  H      118.644    -415.015     110.039
  P      119.786    -412.951     111.605
  C      117.478    -412.767     112.741
  O      118.240    -412.503     111.568
  C      115.979    -412.723     112.423
  O      115.650    -413.870     111.603
  C      115.094    -412.774     113.672
  O      113.959    -411.921     113.483
  C      114.633    -414.225     113.721
  O      113.399    -414.375     114.414
  C      114.578    -414.582     112.235
  N      112.532    -419.139     113.281
  C      112.098    -417.882     113.506
  N      112.698    -416.711     113.175
  C      113.853    -416.950     112.516
  C      114.414    -418.172     112.212
  C      113.711    -419.313     112.639
  N      114.158    -420.601     112.434
  N      115.624    -417.997     111.557
  C      115.772    -416.692     111.461
  N      114.725    -416.011     112.035
  O      120.632    -412.415     110.497
  O      120.235    -412.527     113.081
  H      112.698    -413.944     113.880
  H      119.745    -413.029     113.761
  H      111.145    -417.795     114.018
  H      116.609    -416.188     110.990
  H      113.630    -414.281     111.766
  H      115.391    -414.829     114.235
  H      115.624    -412.483     114.578
  H      115.771    -411.828     111.825
  H      117.712    -412.026     113.517
  H      113.576    -421.361     112.757
  H      115.025    -420.742     111.936
  H      117.760    -413.758     113.112
  P      114.094    -410.387     113.892
  C      113.819    -409.620     111.440
  O      114.615    -409.544     112.622
  O      114.805    -410.105     115.176
  O      112.557    -409.921     113.992
  H      112.465    -409.290     114.738
  H      114.264    -409.023     110.672
  H      112.834    -409.257     111.649
  H      113.762    -410.637     111.113

 6  7  8  9  10  11  12  13  14  15  25  28  32  33  34  35 0
 6-311+G(2d,p)
 ****
 36  39  40 0
 6-311+G(2d,p)
 ****
 1  2  3  4  5  16  17  18  19  20  21  22  23  24 0
 3-21G
 ****
 26  27  29  30  31  37  38  41  42  43  44  45  46  47 0
 3-21G
 ****
 48 0
 3-21G
 ****


