%nproc=1
%NoSave
%Mem=1900MB
#P OB98/GEN NMR

erre ene a

0 1
  C      483.052     622.442     133.307
  O      481.703     622.695     133.652
  P      480.524     621.752     133.138
  C      479.385     623.677     131.864
  O      480.010     622.400     131.755
  C      479.069     624.240     130.477
  O      480.266     624.302     129.669
  C      478.067     623.415     129.674
  O      476.742     623.651     130.143
  C      478.342     623.911     128.263
  O      477.653     625.145     128.000
  C      479.872     624.135     128.292
  N      480.611     623.063     127.642
  C      480.743     623.163     126.264
  O      480.218     624.115     125.631
  N      481.415     622.168     125.578
  C      481.882     621.156     126.242
  N      482.529     620.195     125.519
  C      481.729     620.993     127.706
  C      481.087     621.970     128.330
  O      479.464     621.443     134.142
  O      481.320     620.437     132.626
  H      478.082     625.551     127.220
  H      481.642     619.902     133.389
  H      482.134     620.126     128.199
  H      480.932     621.932     129.407
  H      480.124     625.075     127.785
  H      478.010     623.186     127.510
  H      478.317     622.355     129.756
  H      478.686     625.275     130.606
  H      482.589     620.330     124.514
  H      480.061     624.357     132.374
  H      482.895     619.353     125.909
  H      478.472     623.588     132.458
  P      475.558     622.697     129.668
  C      474.277     624.706     128.699
  O      474.817     623.426     128.439
  O      474.672     622.184     130.744
  O      476.318     621.476     128.947
  H      475.911     620.636     129.233
  H      474.111     625.213     127.750
  H      474.973     625.303     129.308
  H      473.322     624.592     129.228
  H      483.679     623.187     133.751
  H      483.160     622.473     132.243
  H      483.337     621.475     133.667

 3  4  5  6  7  8  9  10  11  12  13  23  27  28  29  30  32 0
 6-311+G(2d,p)
 ****
 34  35 0
 6-311+G(2d,p)
 ****
 1  2  14  15  16  17  18  19  20  21  22  24  25  26 0
 3-21G
 ****
 31  33  36  37  38  39  40  41  42  43  44  45  46 0
 3-21G
 ****


