%nproc=1
%NoSave
%Mem=1900MB
#P OB98/GEN NMR

erre ene a

0 1
  C      161.445    -368.747     146.837
  O      161.270    -367.854     145.730
  P      160.751    -366.347     145.900
  C      159.269    -365.822     143.852
  O      160.553    -365.687     144.452
  C      159.280    -365.372     142.388
  O      159.672    -363.988     142.279
  C      160.246    -366.140     141.492
  O      159.736    -367.423     141.169
  C      160.367    -365.183     140.305
  O      159.269    -365.348     139.392
  C      160.307    -363.806     140.995
  N      161.620    -363.189     141.130
  C      162.035    -362.372     140.079
  O      161.332    -362.246     139.070
  N      163.253    -361.735     140.174
  C      164.013    -361.958     141.199
  N      165.201    -361.300     141.249
  C      163.650    -362.886     142.292
  C      162.454    -363.459     142.193
  O      161.571    -365.523     146.840
  O      159.248    -366.483     146.446
  H      159.237    -366.295     139.164
  H      159.047    -365.716     147.016
  H      164.330    -363.065     143.118
  H      162.104    -364.145     142.954
  H      159.657    -363.126     140.434
  H      161.286    -365.344     139.732
  H      161.223    -366.223     141.986
  H      158.253    -365.460     142.000
  H      165.419    -360.667     140.492
  H      158.562    -365.193     144.413
  H      165.867    -361.398     142.004
  H      158.950    -366.865     143.926
  P      160.708    -368.514     140.515
  C      158.639    -369.397     139.277
  O      159.795    -369.739     140.024
  O      161.891    -368.906     141.339
  O      161.171    -367.842     139.136
  H      162.072    -368.144     138.920
  H      158.343    -370.262     138.676
  H      158.832    -368.551     138.614
  H      157.823    -369.145     139.966
  H      161.798    -369.692     146.480
  H      160.509    -368.882     147.338
  H      162.159    -368.334     147.519

 3  4  5  6  7  8  9  10  11  12  13  23  27  28  29  30  32 0
 6-311+G(2d,p)
 ****
 34  35 0
 6-311+G(2d,p)
 ****
 1  2  14  15  16  17  18  19  20  21  22  24  25  26 0
 3-21G
 ****
 31  33  36  37  38  39  40  41  42  43  44  45  46 0
 3-21G
 ****


