%nproc=1
%NoSave
%Mem=1900MB
#P OB98/GEN NMR

erre ene a

0 1
  C      -77.057     -77.994     -17.275
  O      -76.281     -79.172     -17.214
  H      -76.992     -77.586     -18.287
  H      -76.675     -77.248     -16.574
  H      -78.105     -78.212     -17.054
  P      -76.207     -79.969     -15.823
  C      -77.959     -81.777     -16.437
  O      -77.670     -80.621     -15.667
  C      -77.496     -83.030     -15.701
  O      -76.107     -82.933     -15.321
  C      -78.229     -83.315     -14.395
  O      -79.549     -83.800     -14.573
  C      -77.304     -84.360     -13.798
  O      -77.504     -85.619     -14.464
  C      -75.922     -83.757     -14.136
  N      -75.370     -82.963     -13.040
  C      -74.860     -83.673     -11.946
  O      -74.893     -84.902     -11.924
  N      -74.352     -82.971     -10.879
  C      -74.373     -81.674     -10.893
  N      -73.863     -81.030      -9.808
  C      -74.918     -80.887     -12.015
  C      -75.392     -81.585     -13.043
  O      -75.724     -79.187     -14.645
  O      -75.315     -81.257     -16.145
  H      -77.037     -86.294     -13.939
  H      -75.229     -81.781     -15.312
  H      -74.939     -79.809     -11.965
  H      -75.815     -81.077     -13.904
  H      -75.205     -84.546     -14.398
  H      -77.474     -84.528     -12.733
  H      -78.223     -82.433     -13.743
  H      -77.580     -83.872     -16.401
  H      -73.497     -81.596      -9.054
  H      -77.454     -81.679     -17.402
  H      -73.908     -80.026      -9.699
  H      -79.037     -81.854     -16.606
  P      -80.597     -83.511     -13.388
  C      -81.640     -81.481     -14.655
  O      -80.980     -81.960     -13.495
  O      -79.690     -83.601     -12.075
  O      -81.773     -84.434     -13.340
  H      -79.782     -84.476     -11.650
  H      -81.817     -80.430     -14.556
  H      -82.574     -81.991     -14.770
  H      -81.027     -81.660     -15.514

 6  7  8  9  10  11  12  13  14  15  16  26  30  31  32  33  35 0
 6-311+G(2d,p)
 ****
 37  38 0
 6-311+G(2d,p)
 ****
 1  2  3  4  5  17  18  19  20  21  22  23  24  25 0
 3-21G
 ****
 27  28  29  34  36  39  40  41  42  43  44  45  46 0
 3-21G
 ****


