%nproc=1
%NoSave
%Mem=1900MB
#P OB98/GEN NMR

erre ene a

0 1
  C       11.427     -44.827      62.756
  O       12.723     -45.116      62.270
  H       11.262     -45.402      63.671
  H       10.668     -45.113      62.024
  H       11.338     -43.763      62.991
  P       13.183     -44.456      60.885
  C       13.818     -42.409      62.334
  O       13.218     -42.873      61.129
  C       13.764     -40.884      62.408
  O       14.184     -40.431      63.710
  C       14.675     -40.180      61.410
  O       14.127     -40.234      60.109
  C       14.750     -38.794      62.031
  O       13.565     -38.036      61.741
  C       14.820     -39.143      63.538
  N       16.180     -39.161      64.068
  C       16.639     -37.962      64.625
  O       15.917     -36.967      64.636
  N       17.913     -37.925      65.137
  C       18.645     -38.994      65.135
  N       19.895     -38.891      65.661
  C       18.186     -40.285      64.589
  C       16.962     -40.294      64.067
  O       12.421     -44.877      59.667
  O       14.734     -44.838      60.772
  H       13.480     -38.027      60.767
  H       14.847     -45.655      60.251
  H       18.827     -41.154      64.617
  H       16.547     -41.205      63.644
  H       14.237     -38.421      64.125
  H       15.597     -38.218      61.659
  H       15.678     -40.622      61.433
  H       12.719     -40.576      62.272
  H       20.158     -37.988      66.042
  H       14.859     -42.748      62.325
  H       20.485     -39.685      65.859
  H       13.320     -42.846      63.206
  P       15.027     -39.979      58.807
  C       15.852     -42.413      58.762
  O       16.221     -41.049      58.885
  O       15.460     -38.568      58.601
  O       14.130     -40.551      57.612
  H       13.411     -39.911      57.383
  H       16.726     -43.026      58.829
  H       15.378     -42.570      57.816
  H       15.174     -42.671      59.548

 6  7  8  9  10  11  12  13  14  15  16  26  30  31  32  33  35 0
 6-311+G(2d,p)
 ****
 37  38 0
 6-311+G(2d,p)
 ****
 1  2  3  4  5  17  18  19  20  21  22  23  24  25 0
 3-21G
 ****
 27  28  29  34  36  39  40  41  42  43  44  45  46 0
 3-21G
 ****


