%nproc=1
%NoSave
%Mem=1900MB
#P OB98/GEN NMR

erre ene a

0 1
  C        7.571     899.527     274.228
  O        8.766     900.281     274.242
  H        7.824     898.464     274.234
  H        6.994     899.749     273.324
  H        6.971     899.750     275.116
  P        8.608     901.878     274.260
  C        7.409     903.583     272.702
  O        7.986     902.287     272.838
  C        7.380     903.982     271.230
  O        6.613     903.013     270.474
  C        6.716     905.322     270.968
  O        7.567     906.412     271.262
  C        6.377     905.199     269.486
  O        7.504     905.531     268.663
  C        6.034     903.709     269.345
  N        1.861     904.062     266.424
  C        3.171     904.286     266.155
  N        4.227     904.155     266.993
  C        3.826     903.723     268.204
  C        2.527     903.456     268.615
  C        1.517     903.636     267.655
  N        0.177     903.437     267.927
  N        2.506     903.068     269.937
  C        3.769     903.102     270.324
  N        4.602     903.482     269.306
  O       10.122     902.393     274.174
  O        7.902     902.432     275.452
  H        7.794     906.421     268.951
  H       10.434     902.642     275.066
  H        3.400     904.615     265.154
  H        4.125     902.861     271.319
  H        6.462     903.268     268.438
  H        5.562     905.869     269.221
  H        5.776     905.396     271.537
  H        8.412     903.971     270.841
  H        8.010     904.310     273.262
  H        6.400     903.562     273.114
  H       -0.495     903.656     267.214
  H       -0.097     903.228     268.876
  P        6.895     907.861     271.426
  C        5.609     909.480     269.837
  O        6.494     908.372     269.962
  O        8.111     908.803     271.845
  O        5.781     907.915     272.420
  H        7.806     909.486     272.477
  H        5.446     909.691     268.801
  H        6.040     910.336     270.312
  H        4.676     909.245     270.305

 6  7  8  9  10  11  12  13  14  15  25  28  32  33  34  35 0
 6-311+G(2d,p)
 ****
 36  37  40 0
 6-311+G(2d,p)
 ****
 1  2  3  4  5  16  17  18  19  20  21  22  23  24 0
 3-21G
 ****
 26  27  29  30  31  38  39 41  42  43  44  45  46  47  48 0
 3-21G
 ****


