%nproc=1
%NoSave
%Mem=1900MB
#P OB98/GEN NMR

erre ene a

0 1
  C     -352.353    -243.307    -255.883
  O     -352.164    -243.445    -257.295
  P     -350.721    -243.010    -257.862
  C     -351.328    -240.534    -258.359
  O     -350.546    -241.434    -257.598
  C     -351.420    -239.172    -257.668
  O     -350.151    -238.487    -257.634
  C     -352.398    -238.214    -258.349
  O     -353.730    -238.529    -257.971
  C     -351.929    -236.865    -257.815
  O     -352.491    -236.585    -256.515
  C     -350.409    -237.060    -257.705
  N     -349.204    -232.785    -260.179
  C     -350.161    -233.008    -259.192
  N     -350.879    -231.932    -258.802
  N     -350.390    -234.181    -258.653
  C     -349.590    -235.162    -259.137
  C     -348.598    -235.059    -260.090
  C     -348.361    -233.765    -260.682
  O     -347.513    -233.513    -261.538
  N     -347.966    -236.264    -260.283
  C     -348.665    -237.112    -259.549
  N     -349.624    -236.481    -258.784
  O     -350.903    -243.120    -259.454
  O     -349.605    -243.874    -257.375
  H     -352.150    -237.230    -255.871
  H     -350.385    -243.877    -259.790
  H     -349.081    -231.874    -260.561
  H     -348.499    -238.178    -259.510
  H     -350.008    -236.620    -256.777
  H     -352.233    -236.041    -258.469
  H     -350.758    -231.002    -259.172
  H     -352.274    -238.254    -259.437
  H     -351.578    -232.073    -258.078
  H     -351.735    -239.348    -256.630
  H     -352.332    -240.940    -258.507
  H     -350.884    -240.435    -259.359
  P     -354.816    -238.720    -259.139
  C     -355.053    -236.134    -259.307
  O     -354.839    -237.357    -259.991
  O     -356.210    -238.707    -258.347
  O     -354.656    -239.968    -259.936
  H     -356.784    -239.417    -258.686
  H     -354.547    -235.332    -259.860
  H     -354.661    -236.160    -258.285
  H     -356.125    -235.918    -259.282
  H     -353.341    -243.624    -255.623
  H     -352.222    -242.282    -255.604
  H     -351.637    -243.912    -255.367

 3  4  5  6  7  8  9  10  11  12  23  26  30  31 0
 6-311+G(2d,p)
 ****
 33  35  36  37  38 0
 6-311+G(2d,p)
 ****
 1  2  13  14  15  16  17  18  19  20  21  22  24  25 0
 3-21G
 ****
 27  28  29  32  34  39  40  41  42  43  44  45  46  47  48  49 0
 3-21G
 ****


