%nproc=1
%NoSave
%Mem=1900MB
#P OB98/GEN NMR

erre ene a

0 1
  C      122.061    -101.196     -42.119
  O      122.846    -102.325     -42.451
  P      122.711    -103.680     -41.610
  C      123.569    -104.641     -39.386
  O      123.654    -103.567     -40.318
  C      124.863    -104.753     -38.584
  O      125.988    -105.012     -39.454
  C      125.235    -103.488     -37.825
  O      124.406    -103.281     -36.698
  C      126.700    -103.760     -37.507
  O      126.824    -104.619     -36.364
  C      127.164    -104.493     -38.784
  N      127.943    -103.638     -39.665
  C      129.232    -103.314     -39.225
  O      129.622    -103.678     -38.117
  N      130.040    -102.577     -40.056
  C      129.563    -102.100     -41.164
  N      130.427    -101.430     -41.973
  C      128.159    -102.285     -41.583
  C      127.419    -103.075     -40.806
  O      122.876    -104.937     -42.397
  O      121.240    -103.598     -40.979
  H      120.773    -104.437     -41.161
  H      127.781    -104.759     -36.225
  H      127.792    -101.811     -42.481
  H      126.383    -103.285     -41.048
  H      127.765    -105.370     -38.519
  H      127.255    -102.843     -37.285
  H      125.163    -102.623     -38.496
  H      124.761    -105.600     -37.892
  H      131.386    -101.340     -41.661
  H      123.396    -105.569     -39.937
  H      130.258    -101.308     -42.968
  H      122.716    -104.471     -38.720
  P      123.865    -101.789     -36.461
  C      124.934     -99.486     -35.956
  O      125.118    -100.884     -36.046
  O      123.021    -101.915     -35.103
  O      123.026    -101.247     -37.572
  H      122.240    -101.334     -35.147
  H      125.738     -99.064     -35.348
  H      123.975     -99.237     -35.495
  H      124.983     -99.046     -36.957
  H      122.290    -100.393     -42.788
  H      122.276    -100.895     -41.115
  H      121.024    -101.446     -42.203

 3  4  5  6  7  8  9  10  11  12  13  24  27  28  29  30  32 0
 6-311+G(2d,p)
 ****
 34  35 0
 6-311+G(2d,p)
 ****
 1  2  14  15  16  17  18  19  20  21  22  23  25  26 0
 3-21G
 ****
 31  33  36  37  38  39  40  41  42  43  44  45  46 0
 3-21G
 ****


