%nproc=1
%NoSave
%Mem=1900MB
#P OB98/GEN NMR

erre ene a

0 1
  C     -243.807    -235.663    -107.099
  O     -242.557    -235.541    -106.431
  P     -242.585    -235.255    -104.850
  C     -241.952    -232.746    -105.075
  O     -242.944    -233.695    -104.703
  C     -242.360    -231.345    -104.645
  O     -243.617    -230.992    -105.256
  C     -242.577    -231.184    -103.146
  O     -241.350    -231.005    -102.449
  C     -243.419    -229.918    -103.107
  O     -242.565    -228.763    -103.208
  C     -244.284    -230.054    -104.372
  N     -248.588    -229.247    -101.818
  C     -247.418    -228.511    -101.843
  N     -247.400    -227.385    -101.099
  N     -246.357    -228.850    -102.529
  C     -246.534    -229.978    -103.258
  C     -247.637    -230.799    -103.318
  C     -248.791    -230.437    -102.512
  O     -249.822    -231.088    -102.400
  N     -247.438    -231.844    -104.177
  C     -246.235    -231.643    -104.667
  N     -245.627    -230.538    -104.112
  O     -241.036    -235.318    -104.444
  O     -243.409    -236.207    -104.049
  H     -242.059    -228.847    -104.036
  H     -240.952    -235.551    -103.500
  H     -249.379    -228.931    -101.287
  H     -245.762    -232.263    -105.414
  H     -244.356    -229.106    -104.914
  H     -243.988    -229.810    -102.176
  H     -248.228    -227.001    -100.656
  H     -243.154    -232.021    -102.739
  H     -246.570    -226.810    -101.134
  H     -241.603    -230.638    -105.006
  H     -241.833    -232.763    -106.166
  H     -240.999    -233.028    -104.616
  P     -241.403    -231.168    -100.853
  C     -241.221    -228.594    -100.504
  O     -241.981    -229.774    -100.306
  O     -239.860    -231.137    -100.434
  O     -242.097    -232.398    -100.379
  H     -239.729    -231.618     -99.591
  H     -240.697    -228.612    -101.468
  H     -240.488    -228.499     -99.696
  H     -241.891    -227.732    -100.482
  H     -243.639    -235.851    -108.139
  H     -244.362    -234.755    -106.986
  H     -244.360    -236.475    -106.675

 3  4  5  6  7  8  9  10  11  12  23  26  30  31  33  0
 6-311+G(2d,p)
 ****
 35  36  37  38 0
 6-311+G(2d,p)
 ****
 1  2  13  14  15  16  17  18  19  20  21  22  24  25  27  28  29 0
 3-21G
 ****
 32  34  39  40  41  42  43  44  45  46  47  48  49 0
 3-21G
 ****


