%nproc=1
%NoSave
%Mem=1900MB
#P OB98/GEN NMR

erre ene a

0 1
  C      266.172    -462.732     475.519
  O      267.131    -462.968     474.502
  P      268.433    -463.831     474.887
  C      269.908    -463.621     477.024
  O      269.256    -462.954     475.948
  C      269.937    -462.724     478.257
  O      268.600    -462.465     478.735
  C      270.675    -463.328     479.450
  O      272.084    -463.176     479.343
  C      270.136    -462.482     480.585
  O      270.818    -461.214     480.632
  C      268.671    -462.286     480.170
  N      266.367    -463.465     484.521
  C      267.062    -462.327     484.170
  N      267.219    -461.393     485.140
  N      267.562    -462.114     482.985
  C      267.337    -463.136     482.117
  C      266.657    -464.311     482.351
  C      266.127    -464.538     483.676
  O      265.547    -465.552     484.057
  N      266.630    -465.101     481.223
  C      267.287    -464.404     480.318
  N      267.773    -463.224     480.821
  O      269.331    -463.756     473.568
  O      268.145    -465.235     475.297
  H      270.746    -460.826     479.739
  H      270.012    -464.457     473.585
  H      266.008    -463.585     485.457
  H      267.449    -464.720     479.297
  H      268.313    -461.271     480.392
  H      270.267    -462.954     481.566
  H      266.911    -461.521     486.094
  H      270.389    -464.379     479.601
  H      267.778    -460.574     484.928
  H      270.387    -461.766     477.972
  H      270.927    -463.871     476.723
  H      269.375    -464.550     477.239
  P      272.983    -464.155     480.240
  C      272.451    -464.734     482.721
  O      272.703    -463.722     481.755
  O      274.473    -463.640     479.961
  O      272.818    -465.609     479.924
  H      275.116    -464.358     480.092
  H      272.551    -464.302     483.720
  H      273.168    -465.554     482.628
  H      271.438    -465.113     482.599
  H      265.367    -462.150     475.122
  H      266.632    -462.201     476.327
  H      265.793    -463.667     475.876

 3  4  5  6  7  8  9  10  11  12  23  26  30  31 0
 6-311+G(2d,p)
 ****
 33  35  36  37  38 0
 6-311+G(2d,p)
 ****
 1  2  13  14  15  16  17  18  19  20  21  22  24  25 0
 3-21G
 ****
 27  28  29  32  34  39  40  41  42  43  44  45  46  47  48  49 0
 3-21G
 ****


