%nproc=1
%NoSave
%Mem=1900MB
#P OB98/GEN NMR

erre ene a

0 1
  C     -772.833    -503.326    -526.415
  O     -771.444    -503.491    -526.626
  H     -773.314    -503.146    -527.379
  H     -773.012    -502.463    -525.766
  H     -773.260    -504.227    -525.963
  P     -770.567    -503.934    -525.359
  C     -768.612    -502.413    -526.245
  O     -769.024    -503.679    -525.737
  C     -767.091    -502.378    -526.388
  O     -766.446    -502.479    -525.112
  C     -766.521    -503.549    -527.179
  O     -766.810    -503.467    -528.557
  C     -765.046    -503.410    -526.847
  O     -764.430    -502.379    -527.629
  C     -765.107    -503.002    -525.350
  N     -764.778    -504.101    -524.455
  C     -763.537    -504.710    -524.672
  O     -762.796    -504.311    -525.565
  N     -763.194    -505.783    -523.884
  C     -763.996    -506.189    -522.954
  N     -763.596    -507.264    -522.214
  C     -765.301    -505.559    -522.672
  C     -765.631    -504.537    -523.466
  O     -770.681    -505.525    -525.397
  O     -770.968    -503.312    -524.064
  H     -763.613    -502.127    -527.155
  H     -770.436    -505.917    -526.249
  H     -765.937    -505.925    -521.880
  H     -766.568    -504.018    -523.325
  H     -764.406    -502.174    -525.151
  H     -764.495    -504.335    -527.042
  H     -766.879    -504.497    -526.755
  H     -766.814    -501.416    -526.838
  H     -762.704    -507.683    -522.449
  H     -768.961    -501.601    -525.596
  H     -764.154    -507.690    -521.486
  H     -769.087    -502.281    -527.224
  P     -767.726    -504.581    -529.267
  C     -766.145    -504.134    -531.251
  O     -767.477    -504.431    -530.847
  O     -769.163    -504.576    -528.861
  O     -766.963    -505.952    -528.938
  H     -766.045    -506.001    -529.270
  H     -766.104    -504.059    -532.318
  H     -765.490    -504.914    -530.923
  H     -765.839    -503.206    -530.816

 6  7  8  9  10  11  12  13  14  15  16  26  30  31  32  33  35 0
 6-311+G(2d,p)
 ****
 37  38 0
 6-311+G(2d,p)
 ****
 1  2  3  4  5  17  18  19  20  21  22  23  24  25 0
 3-21G
 ****
 27  28  29  34  36  39  40  41  42  43  44  45  46 0
 3-21G
 ****


