%nproc=1
%NoSave
%Mem=1900MB
#P OB98/GEN NMR

erre ene a

0 1
  C     -133.111     161.442     112.455
  O     -134.308     162.153     112.696
  H     -132.818     160.927     113.373
  H     -132.316     162.137     112.174
  H     -133.255     160.700     111.664
  P     -135.050     162.795     111.429
  C     -135.870     160.694     110.135
  O     -136.206     161.763     111.006
  C     -137.105     160.248     109.354
  O     -136.674     159.394     108.255
  C     -138.116     159.449     110.187
  O     -139.434     159.787     109.743
  C     -137.815     158.012     109.804
  O     -138.902     157.121     110.013
  C     -137.445     158.178     108.327
  N     -136.685     157.043     107.808
  C     -137.371     155.849     107.616
  O     -138.582     155.702     107.770
  N     -136.601     154.782     107.226
  C     -135.251     154.789     107.039
  O     -134.616     153.794     106.709
  C     -134.582     156.077     107.265
  C     -135.317     157.127     107.636
  O     -133.968     162.638     110.261
  O     -135.508     164.205     111.599
  H     -133.388     163.421     110.226
  H     -139.679     157.493     109.547
  H     -137.083     153.909     107.084
  H     -133.509     156.117     107.137
  H     -134.851     158.086     107.832
  H     -138.346     158.326     107.722
  H     -136.960     157.644     110.382
  H     -138.035     159.613     111.266
  H     -137.577     161.131     108.907
  H     -135.497     159.850     110.724
  H     -135.081     161.023     109.450
  P     -140.314     160.730     110.699
  C     -139.483     162.890     109.471
  O     -140.575     162.070     109.859
  O     -139.232     161.152     111.796
  O     -141.528     160.047     111.233
  H     -138.339     161.260     111.428
  H     -139.847     163.733     108.922
  H     -138.814     162.326     108.855
  H     -138.964     163.229     110.343

 6  7  8  9  10  11  12  13  14  15  16  27  31  32  33  34  35 0
 6-311+G(2d,p)
 ****
 36  37 0
 6-311+G(2d,p)
 ****
 1  2  3  4  5  17  18  19  20  21  22  23  24  25 0
 3-21G
 ****
 26  28  29  30  38  39  40  41  42  43  44  45 0
 3-21G
 ****


