%nproc=1
%NoSave
%Mem=1900MB
#P OB98/GEN NMR

erre ene a

0 1
  C     -268.990     870.711     -78.934
  O     -268.004     870.020     -79.715
  P     -266.515     869.708     -79.192
  C     -265.413     869.965     -81.522
  O     -265.672     869.107     -80.416
  C     -264.594     869.247     -82.592
  O     -263.204     869.172     -82.197
  C     -264.988     867.800     -82.844
  O     -266.202     867.685     -83.560
  C     -263.763     867.287     -83.606
  O     -263.846     867.594     -85.003
  C     -262.615     868.097     -82.960
  N     -261.743     867.281     -82.131
  C     -260.951     866.342     -82.796
  O     -261.065     866.173     -84.007
  N     -260.051     865.606     -82.060
  C     -260.031     865.718     -80.770
  N     -259.104     864.975     -80.094
  C     -260.946     866.599     -80.017
  C     -261.767     867.344     -80.753
  O     -266.472     868.867     -77.956
  O     -265.855     871.144     -78.933
  H     -265.156     871.063     -78.254
  H     -262.953     867.442     -85.380
  H     -260.921     866.632     -78.938
  H     -262.461     868.032     -80.288
  H     -262.018     868.588     -83.739
  H     -263.645     866.204     -83.519
  H     -265.065     867.276     -81.887
  H     -264.665     869.830     -83.521
  H     -258.491     864.392     -80.644
  H     -264.841     870.832     -81.157
  H     -258.990     865.006     -79.095
  H     -266.364     870.329     -81.927
  P     -267.546     867.530     -82.695
  C     -268.681     865.427     -83.715
  O     -268.649     866.841     -83.628
  O     -268.068     869.035     -82.533
  O     -267.351     866.875     -81.362
  H     -268.427     869.163     -81.632
  H     -269.701     865.112     -83.942
  H     -268.373     864.959     -82.774
  H     -268.017     865.096     -84.512
  H     -269.896     870.796     -79.497
  H     -268.630     871.688     -78.689
  H     -269.179     870.164     -78.034

 3  4  5  6  7  8  9  10  11  12  13  24  27  28  29  30  32 0
 6-311+G(2d,p)
 ****
 34  35 0
 6-311+G(2d,p)
 ****
 1  2  14  15  16  17  18  19  20  21  22  23  25  26 0
 3-21G
 ****
 31  33  36  37  38  39  40  41  42  43  44  45  46 0
 3-21G
 ****


