%nproc=1
%NoSave
%Mem=1900MB
#P OB98/GEN NMR

erre ene a

0 1
  C      -17.677      70.675    -126.643
  O      -17.821      70.180    -127.977
  P      -17.016      68.840    -128.339
  C      -14.546      68.321    -128.945
  O      -15.448      69.153    -128.228
  C      -13.160      68.967    -128.992
  O      -13.147      70.144    -129.828
  C      -12.664      69.438    -127.631
  O      -12.243      68.343    -126.835
  C      -11.546      70.390    -128.045
  O      -10.358      69.655    -128.386
  C      -12.132      71.041    -129.309
  N      -11.194      76.060    -128.965
  C      -10.387      75.005    -129.222
  N      -10.716      73.698    -129.295
  C      -12.030      73.523    -129.079
  C      -12.974      74.501    -128.808
  C      -12.510      75.826    -128.748
  N      -13.329      76.897    -128.470
  N      -14.223      73.937    -128.640
  C      -14.031      72.642    -128.785
  N      -12.724      72.342    -129.063
  O      -17.262      68.676    -129.912
  O      -17.478      67.639    -127.580
  H       -9.632      70.304    -128.480
  H      -17.869      67.930    -130.079
  H       -9.341      75.243    -129.394
  H      -14.802      71.885    -128.698
  H      -11.378      71.173    -130.095
  H      -11.277      71.103    -127.259
  H      -13.456      69.993    -127.110
  H      -12.455      68.234    -129.409
  H      -14.909      68.153    -129.962
  H      -12.904      77.806    -128.370
  H      -14.293      76.726    -128.222
  H      -14.508      67.340    -128.459
  P      -13.147      67.945    -125.573
  C      -13.546      69.039    -123.282
  O      -12.953      69.179    -124.561
  O      -12.267      66.798    -124.894
  O      -14.558      67.586    -125.896
  H      -11.326      67.047    -124.841
  H      -13.310      69.926    -122.690
  H      -13.146      68.156    -122.776
  H      -14.631      68.956    -123.381
  H      -18.259      71.566    -126.528
  H      -16.647      70.895    -126.453
  H      -18.018      69.935    -125.949

 3  4  5  6  7  8  9  10  11  12  22  25  29  30  31  32 0
 6-311+G(2d,p)
 ****
 33  36  37 0
 6-311+G(2d,p)
 ****
 1  2  13  14  15  16  17  18  19  20  21  23  24  26 0
 3-21G
 ****
 27  28  34  35  38  39  40  41  42  43  44  45  46  47  48 0
 3-21G
 ****


