%nproc=1
%NoSave
%Mem=1900MB
#P OB98/GEN NMR

erre ene a

0 1
  C     -472.490      23.173    -198.414
  O     -472.338      23.596    -199.759
  H     -473.020      22.216    -198.412
  H     -473.079      23.904    -197.859
  H     -471.516      23.040    -197.946
  P     -471.594      25.004    -199.981
  C     -472.218      27.490    -199.565
  O     -472.626      26.135    -199.474
  C     -473.189      28.279    -200.435
  O     -474.445      28.446    -199.759
  C     -472.705      29.678    -200.809
  O     -471.822      29.629    -201.926
  C     -474.015      30.368    -201.139
  O     -474.468      30.050    -202.475
  C     -474.965      29.775    -200.077
  N     -477.042      33.883    -198.004
  C     -477.216      33.338    -199.260
  N     -478.022      34.008    -200.109
  N     -476.636      32.236    -199.653
  C     -475.836      31.679    -198.710
  C     -475.601      32.129    -197.426
  C     -476.257      33.333    -196.994
  O     -476.211      33.830    -195.873
  N     -474.734      31.286    -196.766
  C     -474.421      30.364    -197.660
  N     -475.050      30.567    -198.855
  O     -471.616      25.187    -201.577
  O     -470.217      25.094    -199.432
  H     -475.242      30.592    -202.677
  H     -470.830      25.686    -201.846
  H     -477.530      34.728    -197.762
  H     -473.747      29.535    -197.491
  H     -475.978      29.653    -200.452
  H     -473.919      31.459    -201.091
  H     -478.209      34.997    -199.990
  H     -472.218      30.169    -199.951
  H     -478.128      33.630    -201.043
  H     -473.365      27.687    -201.336
  H     -471.212      27.530    -199.998
  H     -472.173      27.918    -198.553
  P     -470.531      30.604    -201.899
  C     -470.175      33.169    -201.783
  O     -471.100      32.089    -201.811
  O     -469.981      30.508    -203.405
  O     -469.494      30.237    -200.890
  H     -469.060      30.836    -203.430
  H     -470.709      34.094    -201.723
  H     -469.584      33.155    -202.675
  H     -469.537      33.070    -200.930

 6  7  8  9  10  11  12  13  14  15  26  29  33  34 0
 6-311+G(2d,p)
 ****
 36  38  39  40  41 0
 6-311+G(2d,p)
 ****
 1  2  3  4  5  16  17  18  19  20  21  22  23  24  25 0
 3-21G
 ****
 27  28  30  31  32  35  37  42  43  44  45  46  47 0
 3-21G
 ****
 48  49 0
 3-21G
 ****


