%nproc=1
%NoSave
%Mem=1900MB
#P OB98/GEN NMR

erre ene a

0 1
  C       36.846     139.649    -501.692
  O       36.272     138.514    -502.339
  P       34.730     138.668    -502.772
  C       32.500     137.432    -502.290
  O       33.908     137.480    -502.072
  C       31.896     136.180    -501.643
  O       32.344     134.970    -502.337
  C       32.260     136.002    -500.151
  O       31.125     135.419    -499.508
  C       33.410     135.011    -500.224
  O       33.697     134.403    -498.969
  C       32.891     134.087    -501.325
  N       34.708     129.311    -501.452
  C       33.681     129.876    -500.778
  N       33.273     131.154    -500.794
  C       34.030     131.891    -501.616
  C       35.122     131.473    -502.364
  C       35.459     130.113    -502.266
  N       36.521     129.534    -502.924
  N       35.663     132.529    -503.081
  C       34.955     133.586    -502.708
  N       33.917     133.230    -501.884
  O       34.739     138.267    -504.330
  O       34.179     140.033    -502.535
  H       32.982     133.780    -498.736
  H       34.743     139.082    -504.886
  H       33.122     129.207    -500.124
  H       35.165     134.603    -502.978
  H       32.080     133.436    -500.974
  H       34.318     135.536    -500.550
  H       32.516     136.949    -499.645
  H       30.793     136.230    -501.752
  H       32.281     137.421    -503.370
  H       36.691     128.555    -502.784
  H       37.102     130.095    -503.536
  H       32.043     138.348    -501.877
  P       30.542     136.110    -498.183
  C       30.595     135.481    -495.682
  O       31.134     135.215    -496.970
  O       29.023     135.610    -498.217
  O       30.692     137.604    -498.086
  H       28.972     134.645    -498.365
  H       31.016     134.770    -494.978
  H       29.499     135.377    -495.699
  H       30.884     136.494    -495.362
  H       37.867     139.442    -501.448
  H       36.301     139.862    -500.796
  H       36.800     140.494    -502.347

 3  4  5  6  7  8  9  10  11  12  22  25  29  30  31  32 0
 6-311+G(2d,p)
 ****
 33  36  37 0
 6-311+G(2d,p)
 ****
 1  2  13  14  15  16  17  18  19  20  21  23  24  26 0
 3-21G
 ****
 27  28  34  35  38  39  40  41  42  43  44  45  46  47  48 0
 3-21G
 ****


