%nproc=1
%NoSave
%Mem=1900MB
#P OB98/GEN NMR

erre ene a

0 1
  C      -70.347    -150.238    -159.351
  O      -69.685    -149.255    -158.582
  H      -70.971    -150.841    -158.688
  H      -69.617    -150.890    -159.839
  H      -70.984    -149.766    -160.104
  P      -68.727    -148.244    -159.378
  C      -69.563    -146.187    -158.024
  O      -69.425    -146.802    -159.299
  C      -70.849    -145.369    -157.986
  O      -71.989    -146.241    -158.169
  C      -71.090    -144.661    -156.659
  O      -70.319    -143.482    -156.527
  C      -72.587    -144.404    -156.732
  O      -72.878    -143.219    -157.483
  C      -73.105    -145.643    -157.470
  N      -77.345    -148.288    -156.434
  C      -77.020    -147.469    -157.457
  N      -75.861    -146.810    -157.667
  C      -74.976    -147.090    -156.697
  C      -75.162    -147.908    -155.595
  C      -76.416    -148.529    -155.480
  N      -76.757    -149.344    -154.426
  N      -74.034    -147.914    -154.800
  C      -73.178    -147.124    -155.413
  N      -73.701    -146.605    -156.565
  O      -68.928    -148.682    -160.903
  O      -67.292    -148.280    -158.973
  H      -72.534    -142.470    -156.958
  H      -68.181    -149.244    -161.182
  H      -77.797    -147.313    -158.199
  H      -72.181    -146.890    -155.062
  H      -73.862    -145.392    -158.222
  H      -73.009    -144.277    -155.735
  H      -70.892    -145.347    -155.825
  H      -70.833    -144.650    -158.814
  H      -68.709    -145.525    -157.846
  H      -69.577    -146.966    -157.255
  H      -77.696    -149.700    -154.372
  H      -76.111    -149.437    -153.652
  P      -69.189    -143.453    -155.391
  C      -67.198    -142.881    -156.973
  O      -67.798    -143.823    -156.094
  O      -69.515    -144.738    -154.494
  O      -69.158    -142.203    -154.579
  H      -69.316    -144.547    -153.557
  H      -66.282    -143.282    -157.354
  H      -66.997    -141.975    -156.441
  H      -67.863    -142.677    -157.786

 6  7  8  9  10  11  12  13  14  15  25  28  32  33  34  35 0
 6-311+G(2d,p)
 ****
 36  37  40 0
 6-311+G(2d,p)
 ****
 1  2  3  4  5  16  17  18  19  20  21  22  23  24 0
 3-21G
 ****
 26  27  29  30  31  38  39 41  42  43  44  45  46  47  48 0
 3-21G
 ****


