%nproc=1
%NoSave
%Mem=1900MB
#P OB98/GEN NMR

erre ene a

0 1
  C      145.197    -605.885    -201.348
  O      145.080    -605.746    -199.928
  P      145.944    -606.679    -198.938
  C      146.886    -604.760    -197.515
  O      146.084    -605.937    -197.516
  C      146.943    -604.053    -196.166
  O      145.643    -603.498    -195.816
  C      147.378    -604.931    -194.990
  O      148.092    -604.068    -194.100
  C      146.054    -605.356    -194.383
  O      146.175    -605.818    -193.051
  C      145.227    -604.069    -194.560
  N      143.789    -604.327    -194.522
  C      143.176    -604.275    -193.274
  O      143.843    -604.083    -192.256
  N      141.812    -604.488    -193.191
  C      141.151    -604.830    -194.262
  N      139.824    -605.053    -194.120
  C      141.781    -604.970    -195.593
  C      143.089    -604.692    -195.648
  O      147.236    -607.162    -199.515
  O      144.967    -607.907    -198.614
  H      146.575    -605.110    -192.505
  H      145.504    -608.707    -198.448
  H      141.200    -605.288    -196.449
  H      143.647    -604.766    -196.579
  H      145.472    -603.338    -193.772
  H      145.616    -606.165    -194.987
  H      147.994    -605.782    -195.289
  H      147.623    -603.198    -196.265
  H      139.429    -604.970    -193.184
  H      146.493    -604.073    -198.276
  H      139.246    -605.424    -194.859
  H      147.907    -605.030    -197.831
  P      149.530    -604.458    -193.509
  C      150.618    -602.134    -193.566
  O      150.089    -603.158    -192.747
  O      150.477    -605.048    -194.489
  O      149.220    -605.485    -192.315
  H      150.035    -605.966    -192.088
  H      150.774    -601.230    -192.977
  H      149.941    -601.908    -194.398
  H      151.585    -602.460    -193.976
  H      144.549    -605.183    -201.830
  H      144.921    -606.879    -201.633
  H      146.208    -605.697    -201.643

 3  4  5  6  7  8  9  10  11  12  13  23  27  28  29  30  32 0
 6-311+G(2d,p)
 ****
 34  35 0
 6-311+G(2d,p)
 ****
 1  2  14  15  16  17  18  19  20  21  22  24  25  26 0
 3-21G
 ****
 31  33  36  37  38  39  40  41  42  43  44  45  46 0
 3-21G
 ****


