%nproc=1
%NoSave
%Mem=1900MB
#P OB98/GEN NMR

erre ene a

0 1
  C     -364.739    -318.286    -899.345
  O     -364.239    -318.091    -898.005
  P     -362.662    -318.228    -897.765
  C     -362.835    -320.833    -897.715
  O     -362.390    -319.651    -897.065
  C     -362.175    -322.064    -897.095
  O     -360.762    -322.131    -897.375
  C     -362.294    -322.152    -895.585
  O     -363.566    -322.667    -895.185
  C     -361.204    -323.137    -895.225
  O     -361.650    -324.470    -895.475
  C     -360.100    -322.735    -896.245
  N     -355.457    -322.340    -894.075
  C     -356.195    -323.416    -894.475
  N     -357.447    -323.447    -895.015
  C     -357.903    -322.190    -895.165
  C     -357.279    -320.997    -894.825
  C     -355.992    -321.112    -894.265
  N     -355.266    -320.000    -893.885
  N     -358.073    -319.914    -895.135
  C     -359.157    -320.460    -895.675
  N     -359.100    -321.815    -895.705
  O     -362.364    -317.175    -896.585
  O     -361.839    -317.937    -898.985
  H     -360.943    -325.072    -895.215
  H     -361.469    -316.784    -896.725
  H     -355.727    -324.384    -894.295
  H     -360.021    -319.892    -896.055
  H     -359.571    -323.627    -896.625
  H     -360.903    -323.060    -894.175
  H     -362.098    -321.173    -895.115
  H     -362.638    -322.964    -897.555
  H     -362.609    -320.779    -898.775
  H     -354.336    -320.159    -893.485
  H     -355.656    -319.076    -894.035
  H     -363.936    -320.882    -897.635
  P     -364.758    -321.605    -894.955
  C     -364.788    -321.850    -892.355
  O     -365.478    -322.048    -893.595
  O     -365.829    -322.007    -896.095
  O     -364.334    -320.176    -895.045
  H     -366.320    -321.216    -896.375
  H     -365.527    -321.894    -891.545
  H     -364.327    -320.853    -892.345
  H     -364.041    -322.617    -892.215
  H     -365.802    -318.164    -899.350
  H     -364.491    -319.272    -899.678
  H     -364.294    -317.566    -900.000

 3  4  5  6  7  8  9  10  11  12  22  25  29  30  31  32 0
 6-311+G(2d,p)
 ****
 33  36  37 0
 6-311+G(2d,p)
 ****
 1  2  13  14  15  16  17  18  19  20  21  23  24  26 0
 3-21G
 ****
 27  28  34  35  38  39  40  41  42  43  44  45  46  47  48 0
 3-21G
 ****


