%nproc=1
%NoSave
%Mem=1900MB
#P OB98/GEN NMR

erre ene a

0 1
  C      836.234     297.738     389.914
  O      835.700     296.544     389.336
  P      836.369     295.135     389.714
  C      835.865     293.857     387.533
  O      835.582     293.979     388.926
  C      835.323     292.537     386.983
  O      835.932     291.406     387.639
  C      833.828     292.369     387.194
  O      833.102     293.182     386.287
  C      833.659     290.871     386.993
  O      833.589     290.539     385.593
  C      834.971     290.317     387.594
  N      834.788     289.721     388.913
  C      834.001     288.562     388.952
  O      833.474     288.126     387.924
  N      833.810     287.935     390.158
  C      834.360     288.424     391.226
  N      834.140     287.762     392.399
  C      835.184     289.648     391.231
  C      835.349     290.240     390.045
  O      836.570     294.891     391.173
  O      837.773     295.189     388.938
  H      834.353     290.988     385.168
  H      838.429     294.665     389.437
  H      835.627     290.012     392.150
  H      835.943     291.149     389.964
  H      835.406     289.555     386.936
  H      832.751     290.495     387.458
  H      833.566     292.631     388.225
  H      835.562     292.488     385.916
  H      833.563     286.929     392.373
  H      836.942     293.912     387.373
  H      834.565     288.031     393.276
  H      835.424     294.714     387.009
  P      831.694     293.774     386.785
  C      830.931     294.100     384.335
  O      831.097     294.684     385.606
  O      832.141     294.856     387.893
  O      830.757     292.769     387.367
  H      831.475     294.888     388.601
  H      830.239     294.722     383.750
  H      830.518     293.090     384.401
  H      831.894     294.071     383.816
  H      835.680     298.583     389.563
  H      837.261     297.842     389.632
  H      836.161     297.682     390.980

 3  4  5  6  7  8  9  10  11  12  13  23  27  28  29  30  32 0
 6-311+G(2d,p)
 ****
 34  35 0
 6-311+G(2d,p)
 ****
 1  2  14  15  16  17  18  19  20  21  22  24  25  26 0
 3-21G
 ****
 31  33  36  37  38  39  40  41  42  43  44  45  46 0
 3-21G
 ****


