%nproc=1
%NoSave
%Mem=1900MB
#P OB98/GEN NMR

erre ene a

0 1
  C      208.608    -240.260    -152.067
  O      209.031    -241.446    -152.761
  P      210.547    -241.685    -153.242
  C      210.690    -239.912    -155.112
  O      211.147    -240.313    -153.826
  C      211.621    -238.871    -155.748
  O      211.147    -238.533    -157.091
  C      211.746    -237.563    -154.957
  O      213.116    -237.153    -155.061
  C      210.819    -236.638    -155.738
  O      211.054    -235.255    -155.492
  C      211.142    -237.093    -157.168
  N      210.211    -236.629    -158.195
  C      210.695    -235.734    -159.155
  O      211.841    -235.303    -159.109
  N      209.840    -235.325    -160.158
  C      208.620    -235.767    -160.192
  N      207.828    -235.333    -161.219
  C      208.068    -236.699    -159.192
  C      208.908    -237.085    -158.239
  O      210.697    -242.846    -154.178
  O      211.388    -241.934    -151.903
  H      212.086    -242.593    -152.079
  H      210.894    -235.083    -154.550
  H      207.050    -237.050    -159.262
  H      208.589    -237.796    -157.477
  H      212.162    -236.777    -157.431
  H      209.787    -236.853    -155.459
  H      211.487    -237.664    -153.899
  H      212.613    -239.339    -155.881
  H      208.247    -234.699    -161.892
  H      209.692    -239.476    -155.004
  H      206.870    -235.620    -161.346
  H      210.603    -240.797    -155.751
  P      214.058    -237.173    -153.765
  C      213.544    -234.719    -153.032
  O      213.476    -236.096    -152.720
  O      215.375    -236.424    -154.296
  O      214.404    -238.522    -153.224
  H      216.137    -236.719    -153.774
  H      212.591    -234.247    -152.780
  H      213.769    -234.538    -154.090
  H      214.332    -234.265    -152.417
  H      207.562    -240.327    -151.851
  H      208.791    -239.403    -152.681
  H      209.156    -240.167    -151.153

 3  4  5  6  7  8  9  10  11  12  13  24  27  28  29  30  32 0
 6-311+G(2d,p)
 ****
 34  35 0
 6-311+G(2d,p)
 ****
 1  2  14  15  16  17  18  19  20  21  22  23  25  26 0
 3-21G
 ****
 31  33  36  37  38  39  40  41  42  43  44  45  46 0
 3-21G
 ****


