%nproc=1
%NoSave
%Mem=1900MB
#P OB98/GEN NMR

erre ene a

0 1
  C      238.413     461.345    -588.324
  O      238.118     462.245    -587.276
  H      237.556     461.290    -588.993
  H      238.605     460.345    -587.913
  H      239.286     461.688    -588.890
  P      239.320     462.603    -586.272
  C      240.940     463.457    -588.167
  O      240.660     462.507    -587.150
  C      242.441     463.554    -588.429
  O      242.874     462.351    -589.120
  C      242.843     464.761    -589.287
  O      244.109     465.237    -588.826
  C      243.003     464.159    -590.672
  O      243.856     464.949    -591.501
  C      243.534     462.758    -590.336
  N      243.312     461.800    -591.420
  C      244.086     461.954    -592.565
  O      244.910     462.877    -592.646
  N      243.897     461.094    -593.620
  C      242.965     460.199    -593.558
  N      242.804     459.393    -594.642
  C      242.082     460.024    -592.379
  C      242.320     460.841    -591.358
  O      239.372     461.309    -585.344
  O      239.145     463.893    -585.530
  H      244.770     464.895    -591.140
  H      239.310     460.474    -585.839
  H      241.311     459.270    -592.381
  H      241.735     460.783    -590.446
  H      244.620     462.796    -590.128
  H      242.030     464.085    -591.162
  H      242.106     465.567    -589.255
  H      242.961     463.570    -587.460
  H      243.409     459.561    -595.440
  H      240.552     464.442    -587.880
  H      242.076     458.694    -594.730
  H      240.416     463.142    -589.076
  P      244.191     466.058    -587.444
  C      244.695     464.106    -585.821
  O      243.762     465.094    -586.240
  O      243.554     467.409    -587.460
  O      245.778     466.196    -587.217
  H      245.959     467.103    -586.889
  H      244.277     463.540    -585.015
  H      245.595     464.582    -585.493
  H      244.915     463.453    -586.640

 6  7  8  9  10  11  12  13  14  15  16  26  30  31  32  33  35 0
 6-311+G(2d,p)
 ****
 37  38 0
 6-311+G(2d,p)
 ****
 1  2  3  4  5  17  18  19  20  21  22  23  24  25 0
 3-21G
 ****
 27  28  29  34  36  39  40  41  42  43  44  45  46 0
 3-21G
 ****


