%nproc=1
%NoSave
%Mem=1900MB
#P OB98/GEN NMR

erre ene a

0 1
  C     -149.834     269.220      -4.044
  O     -150.659     268.364      -3.275
  P     -150.538     268.422      -1.674
  C     -151.858     270.699      -1.641
  O     -150.711     269.964      -1.260
  C     -152.846     270.791      -0.474
  O     -152.176     271.416       0.659
  C     -154.111     271.616      -0.770
  O     -155.195     270.997      -0.062
  C     -153.779     272.972      -0.169
  O     -154.942     273.738       0.123
  C     -152.980     272.544       1.069
  N     -152.131     273.609       1.602
  C     -152.752     274.682       2.241
  O     -153.971     274.795       2.357
  N     -151.912     275.657       2.724
  C     -150.555     275.696       2.577
  O     -149.857     276.602       3.014
  C     -149.958     274.564       1.857
  C     -150.756     273.586       1.417
  O     -148.981     268.134      -1.469
  O     -151.456     267.483      -0.967
  H     -148.425     268.521      -2.169
  H     -155.463     273.251       0.786
  H     -152.340     276.424       3.222
  H     -148.886     274.570       1.708
  H     -150.340     272.740       0.885
  H     -153.658     272.188       1.854
  H     -153.159     273.535      -0.871
  H     -154.337     271.653      -1.839
  H     -153.116     269.772      -0.165
  H     -152.353     270.192      -2.481
  H     -151.561     271.697      -1.979
  P     -156.693     271.217      -0.613
  C     -157.182     268.876      -1.676
  O     -156.885     270.239      -1.865
  O     -156.523     272.655      -1.303
  O     -157.759     271.202       0.430
  H     -155.745     272.713      -1.880
  H     -157.603     268.468      -2.602
  H     -157.910     268.730      -0.872
  H     -156.261     268.329      -1.437
  H     -150.030     269.065      -5.084
  H     -148.806     269.004      -3.839
  H     -150.042     270.238      -3.790

 3  4  5  6  7  8  9  10  11  12  13  24  28  29  30  31  32 0
 6-311+G(2d,p)
 ****
 33  34 0
 6-311+G(2d,p)
 ****
 1  2  14  15  16  17  18  19  20  21  22  23  25  26  27 0
 3-21G
 ****
 35  36  37  38  39  40  41  42  43  44  45 0
 3-21G
 ****


