%nproc=1
%NoSave
%Mem=1900MB
#P OB98/GEN NMR

erre ene a

0 1
  C      200.024     221.368     296.538
  O      199.697     220.104     295.981
  P      199.391     218.903     297.001
  C      197.249     218.299     295.664
  O      197.806     218.661     296.921
  C      196.753     216.854     295.692
  O      196.021     216.609     296.912
  C      195.806     216.487     294.564
  O      196.490     216.165     293.363
  C      195.138     215.247     295.141
  O      196.008     214.109     294.985
  C      195.001     215.611     296.620
  N      190.110     214.435     297.546
  C      191.159     213.679     297.164
  N      192.428     214.072     296.924
  C      192.560     215.397     297.085
  C      191.560     216.303     297.436
  C      190.285     215.777     297.680
  N      189.227     216.543     298.100
  N      192.076     217.582     297.493
  C      193.348     217.454     297.197
  N      193.692     216.154     296.949
  O      199.590     219.585     298.438
  O      200.247     217.693     296.827
  H      196.254     214.069     294.052
  H      199.790     218.904     299.104
  H      190.955     212.619     297.045
  H      194.063     218.271     297.155
  H      195.181     214.760     297.285
  H      194.200     214.998     294.637
  H      195.045     217.270     294.404
  H      197.629     216.198     295.690
  H      198.014     218.398     294.893
  H      188.398     216.068     298.429
  H      189.411     217.497     298.387
  H      196.425     218.980     295.428
  P      195.613     216.117     292.015
  C      196.642     218.293     291.030
  O      195.496     217.642     291.536
  O      194.149     215.765     292.557
  O      196.106     215.144     291.007
  H      193.628     215.328     291.856
  H      196.330     219.184     290.478
  H      197.204     217.642     290.364
  H      197.285     218.606     291.860
  H      200.202     222.070     295.750
  H      200.904     221.276     297.139
  H      199.212     221.711     297.144

 3  4  5  6  7  8  9  10  11  12  22  25  29  30  31  32 0
 6-311+G(2d,p)
 ****
 33  36  37 0
 6-311+G(2d,p)
 ****
 1  2  13  14  15  16  17  18  19  20  21  23  24  26 0
 3-21G
 ****
 27  28  34  35  38  39  40  41  42  43  44  45  46  47  48 0
 3-21G
 ****


