%nproc=1
%NoSave
%Mem=1900MB
#P OB98/GEN NMR

erre ene a

0 1
  C     1091.462     302.399    -340.763
  O     1090.363     301.684    -341.288
  H     1091.912     302.990    -341.566
  H     1092.213     301.706    -340.380
  H     1091.143     303.078    -339.968
  P     1089.421     300.870    -340.283
  C     1087.591     302.669    -340.544
  O     1088.396     301.921    -339.638
  C     1086.118     302.553    -340.141
  O     1085.951     302.992    -338.764
  C     1085.186     303.428    -340.965
  O     1084.960     302.879    -342.252
  C     1083.969     303.478    -340.062
  O     1083.155     302.302    -340.224
  C     1084.603     303.505    -338.653
  N     1084.606     304.856    -338.080
  C     1083.380     305.344    -337.650
  O     1082.328     304.691    -337.729
  N     1083.381     306.627    -337.185
  C     1084.432     307.487    -337.242
  O     1084.320     308.701    -337.044
  C     1085.719     306.908    -337.644
  C     1085.745     305.635    -338.054
  O     1090.130     299.993    -339.303
  O     1088.481     300.008    -341.259
  H     1088.803     299.090    -341.290
  H     1082.734     302.389    -341.102
  H     1082.477     307.006    -336.906
  H     1086.596     307.547    -337.636
  H     1086.669     305.196    -338.395
  H     1084.064     302.835    -337.971
  H     1083.338     304.350    -340.270
  H     1085.609     304.437    -341.051
  H     1085.823     301.494    -340.203
  H     1087.716     302.251    -341.551
  H     1087.914     303.707    -340.537
  P     1084.655     303.847    -343.495
  C     1086.846     303.564    -344.814
  O     1086.053     304.433    -344.019
  O     1083.591     304.863    -343.269
  O     1084.240     302.834    -344.673
  H     1083.390     303.147    -345.065
  H     1087.747     304.065    -345.100
  H     1086.299     303.284    -345.690
  H     1087.089     302.688    -344.250

 6  7  8  9  10  11  12  13  14  15  16  27  31  32  33  34  35 0
 6-311+G(2d,p)
 ****
 36  37 0
 6-311+G(2d,p)
 ****
 1  2  3  4  5  17  18  19  20  21  22  23  24  25 0
 3-21G
 ****
 26  28  29  30  38  39  40  41  42  43  44  45 0
 3-21G
 ****


