%nproc=1
%NoSave
%Mem=1900MB
#P OB98/GEN NMR

erre ene a

0 1
  C     1115.542     548.479     937.992
  O     1115.635     549.840     938.368
  P     1116.104     550.268     939.826
  C     1118.643     549.754     939.345
  O     1117.489     549.545     940.143
  C     1119.522     550.833     940.009
  O     1119.688     550.542     941.407
  C     1120.900     550.904     939.363
  O     1120.933     551.909     938.360
  C     1121.803     551.204     940.554
  O     1121.784     552.609     940.864
  C     1121.121     550.395     941.683
  N     1121.413     548.941     941.788
  C     1121.488     548.359     943.047
  O     1121.306     548.960     944.094
  N     1121.833     547.017     943.053
  C     1122.042     546.246     941.951
  O     1122.571     545.144     941.978
  C     1121.670     546.848     940.665
  C     1121.415     548.155     940.644
  O     1115.075     549.484     940.777
  O     1116.133     551.739     940.107
  H     1122.445     552.756     941.554
  H     1114.360     550.094     941.069
  H     1122.022     546.619     943.971
  H     1121.693     546.229     939.780
  H     1121.181     548.644     939.704
  H     1121.316     550.838     942.665
  H     1122.848     550.956     940.326
  H     1121.188     549.920     938.956
  H     1119.019     551.799     939.925
  H     1118.335     550.083     938.344
  H     1119.208     548.822     939.229
  P     1121.696     551.619     936.976
  C     1119.740     550.546     935.713
  O     1120.983     550.317     936.365
  O     1123.173     551.563     937.068
  O     1121.205     552.831     936.045
  H     1121.885     553.534     936.041
  H     1119.457     549.620     935.198
  H     1119.822     551.357     935.008
  H     1118.983     550.774     936.478
  H     1115.210     548.411     936.977
  H     1114.843     547.980     938.630
  H     1116.503     548.017     938.085

 3  4  5  6  7  8  9  10  11  12  13  23  28  29  30  31  32 0
 6-311+G(2d,p)
 ****
 33  34 0
 6-311+G(2d,p)
 ****
 1  2  14  15  16  17  18  19  20  21  22  24  25  26  27 0
 3-21G
 ****
 35  36  37  38  39  40  41  42  43  44  45 0
 3-21G
 ****


