%nproc=1
%NoSave
%Mem=1900MB
#P OB98/GEN NMR

erre ene a

0 1
  C     -155.272    -403.225     311.826
  O     -156.249    -402.872     310.851
  P     -155.802    -401.850     309.697
  C     -157.919    -402.687     308.445
  O     -157.132    -401.570     308.842
  C     -159.342    -402.256     308.120
  O     -160.060    -401.986     309.345
  C     -159.447    -400.980     307.300
  O     -159.245    -401.223     305.911
  C     -160.886    -400.567     307.575
  O     -161.781    -401.310     306.720
  C     -161.073    -400.989     309.046
  N     -162.799    -399.021     313.383
  C     -163.160    -400.183     312.732
  N     -164.102    -400.940     313.339
  N     -162.653    -400.563     311.588
  C     -161.697    -399.730     311.120
  C     -161.251    -398.545     311.672
  C     -161.852    -398.112     312.911
  O     -161.620    -397.054     313.500
  N     -160.253    -397.991     310.914
  C     -160.073    -398.845     309.925
  N     -160.944    -399.898     309.994
  O     -154.919    -402.760     308.719
  O     -155.054    -400.653     310.165
  H     -161.702    -400.926     305.824
  H     -154.289    -402.206     308.226
  H     -163.206    -398.783     314.270
  H     -159.331    -398.733     309.148
  H     -162.050    -401.471     309.198
  H     -161.068    -399.503     307.387
  H     -164.430    -400.769     314.278
  H     -158.765    -400.213     307.675
  H     -164.351    -401.820     312.894
  H     -159.849    -403.088     307.610
  H     -157.944    -403.415     309.268
  H     -157.453    -403.161     307.572
  P     -158.588    -400.029     305.061
  C     -156.757    -401.537     303.991
  O     -157.917    -400.742     303.797
  O     -157.341    -399.584     305.957
  O     -159.513    -398.896     304.774
  H     -157.117    -398.647     305.780
  H     -156.810    -402.083     304.936
  H     -155.872    -400.899     303.982
  H     -156.685    -402.262     303.177
  H     -155.701    -403.907     312.530
  H     -154.944    -402.344     312.337
  H     -154.437    -403.689     311.343

 3  4  5  6  7  8  9  10  11  12  23  26  30  31  33  0
 6-311+G(2d,p)
 ****
 35  36  37  38 0
 6-311+G(2d,p)
 ****
 1  2  13  14  15  16  17  18  19  20  21  22  24  25  27  28  29 0
 3-21G
 ****
 32  34  39  40  41  42  43  44  45  46  47  48  49 0
 3-21G
 ****


