%nproc=1
%NoSave
%Mem=1900MB
#P OB98/GEN NMR

erre ene a

0 1
  C      -28.098    -103.127     313.741
  O      -26.943    -103.708     313.140
  P      -26.160    -104.975     313.715
  C      -26.389    -106.460     311.565
  O      -26.683    -106.276     312.942
  C      -26.056    -107.919     311.210
  O      -24.867    -108.334     311.933
  C      -27.183    -108.852     311.657
  O      -28.322    -109.035     310.838
  C      -26.480    -110.146     312.043
  O      -26.444    -111.090     310.971
  C      -25.063    -109.686     312.397
  N      -24.166    -112.705     316.427
  C      -24.493    -113.054     315.132
  N      -24.650    -114.371     314.883
  N      -24.666    -112.186     314.171
  C      -24.567    -110.900     314.576
  C      -24.269    -110.430     315.834
  C      -24.020    -111.401     316.879
  O      -23.717    -111.147     318.040
  N      -24.274    -109.059     315.873
  C      -24.600    -108.701     314.648
  N      -24.781    -109.785     313.819
  O      -26.073    -105.060     315.199
  O      -24.663    -104.773     313.148
  H      -27.362    -111.308     310.731
  H      -24.059    -105.146     313.821
  H      -24.020    -113.416     317.124
  H      -24.712    -107.679     314.307
  H      -24.310    -110.300     311.888
  H      -27.006    -110.637     312.871
  H      -24.648    -115.078     315.602
  H      -27.580    -108.445     312.598
  H      -25.098    -114.615     313.999
  H      -25.810    -108.015     310.150
  H      -25.543    -105.808     311.331
  H      -27.225    -106.116     310.955
  P      -29.813    -108.558     311.169
  C      -30.138    -106.895     309.246
  O      -29.979    -107.055     310.645
  O      -29.817    -108.376     312.759
  O      -30.889    -109.501     310.739
  H      -30.732    -108.339     313.095
  H      -29.932    -105.857     308.982
  H      -31.168    -107.138     308.966
  H      -29.449    -107.547     308.699
  H      -28.423    -102.293     313.155
  H      -27.858    -102.797     314.730
  H      -28.880    -103.856     313.789

 3  4  5  6  7  8  9  10  11  12  23  26  30  31 0
 6-311+G(2d,p)
 ****
 33  35  36  37  38 0
 6-311+G(2d,p)
 ****
 1  2  13  14  15  16  17  18  19  20  21  22  24  25 0
 3-21G
 ****
 27  28  29  32  34  39  40  41  42  43  44  45  46  47  48  49 0
 3-21G
 ****


