%nproc=1
%NoSave
%Mem=1900MB
#P OB98/GEN NMR

erre ene a

0 1
  C      -60.898     539.960    -291.114
  O      -61.321     540.277    -292.424
  H      -60.611     538.905    -291.082
  H      -61.710     540.121    -290.401
  H      -60.028     540.564    -290.833
  P      -61.670     541.796    -292.784
  C      -64.106     541.214    -293.398
  O      -62.866     541.762    -293.846
  C      -64.655     540.249    -294.447
  O      -64.624     540.858    -295.756
  C      -63.860     538.953    -294.570
  O      -64.137     538.089    -293.492
  C      -64.326     538.468    -295.933
  O      -65.621     537.846    -295.845
  C      -64.425     539.798    -296.722
  N      -63.247     540.053    -297.551
  C      -63.066     539.196    -298.638
  O      -63.830     538.275    -298.905
  N      -61.937     539.424    -299.384
  C      -60.954     540.324    -299.108
  O      -59.866     540.339    -299.669
  C      -61.235     541.242    -297.993
  C      -62.342     541.059    -297.267
  O      -60.511     542.657    -293.160
  O      -62.387     542.340    -291.451
  H      -61.754     542.865    -290.937
  H      -65.874     537.610    -296.760
  H      -61.767     538.773    -300.149
  H      -60.508     542.024    -297.775
  H      -62.558     541.707    -296.420
  H      -65.305     539.795    -297.376
  H      -63.649     537.734    -296.371
  H      -62.785     539.177    -294.623
  H      -65.705     540.036    -294.199
  H      -64.818     542.036    -293.257
  H      -63.950     540.704    -292.444
  P      -63.080     537.867    -292.314
  C      -62.909     535.342    -292.756
  O      -63.209     536.349    -291.801
  O      -63.116     538.892    -291.223
  O      -61.655     537.877    -293.053
  H      -61.070     538.529    -292.619
  H      -63.028     534.378    -292.307
  H      -61.899     535.458    -293.091
  H      -63.574     535.431    -293.590

 6  7  8  9  10  11  12  13  14  15  16  27  31  32  33  34  35 0
 6-311+G(2d,p)
 ****
 36  37 0
 6-311+G(2d,p)
 ****
 1  2  3  4  5  17  18  19  20  21  22  23  24  25 0
 3-21G
 ****
 26  28  29  30  38  39  40  41  42  43  44  45 0
 3-21G
 ****


