%nproc=1
%NoSave
%Mem=1900MB
#P OB98/GEN NMR

erre ene a

0 1
  C       -7.943     -76.785      18.716
  O       -6.716     -76.508      18.028
  P       -5.365     -77.138      18.615
  C       -5.297     -79.568      17.685
  O       -4.819     -78.235      17.580
  C       -4.205     -80.563      17.281
  O       -4.564     -81.917      17.620
  C       -3.918     -80.583      15.788
  O       -3.045     -79.529      15.410
  C       -3.220     -81.925      15.640
  O       -1.842     -81.806      16.047
  C       -3.990     -82.804      16.632
  N       -5.676     -87.524      15.579
  C       -4.547     -87.081      16.175
  N       -4.160     -85.809      16.403
  C       -5.087     -84.945      15.959
  C       -6.284     -85.247      15.331
  C       -6.572     -86.608      15.142
  N       -7.725     -87.052      14.537
  N       -6.970     -84.095      15.007
  C       -6.207     -83.115      15.446
  N       -5.054     -83.578      16.020
  O       -5.883     -78.022      19.846
  O       -4.364     -76.122      19.056
  H       -1.446     -81.098      15.506
  H       -5.223     -78.009      20.563
  H       -3.862     -87.853      16.515
  H       -6.447     -82.063      15.373
  H       -3.337     -83.508      17.159
  H       -3.216     -82.286      14.608
  H       -4.850     -80.577      15.208
  H       -3.290     -80.301      17.828
  H       -6.179     -79.701      17.052
  H       -7.876     -88.044      14.462
  H       -8.407     -86.373      14.230
  H       -5.628     -79.746      18.713
  P       -3.181     -78.964      13.914
  C       -5.026     -77.223      14.468
  O       -3.691     -77.454      14.066
  O       -4.453     -79.752      13.348
  O       -1.971     -79.168      13.066
  H       -4.368     -79.875      12.382
  H       -5.115     -76.189      14.811
  H       -5.314     -77.888      15.285
  H       -5.699     -77.373      13.619
  H       -8.752     -76.301      18.211
  H       -7.879     -76.420      19.720
  H       -8.113     -77.841      18.731

 3  4  5  6  7  8  9  10  11  12  22  25  29  30  31  32 0
 6-311+G(2d,p)
 ****
 33  36  37 0
 6-311+G(2d,p)
 ****
 1  2  13  14  15  16  17  18  19  20  21  23  24  26 0
 3-21G
 ****
 27  28  34  35  38  39  40  41  42  43  44  45  46  47  48 0
 3-21G
 ****


