%nproc=1
%NoSave
%Mem=1900MB
#P OB98/GEN NMR

erre ene a

0 1
  C        1.785     -41.717      82.386
  O        2.846     -42.506      81.894
  H        1.192     -41.359      81.541
  H        2.181     -40.852      82.924
  H        1.141     -42.304      83.046
  P        3.760     -43.269      82.969
  C        3.242     -45.777      82.545
  O        4.133     -44.694      82.328
  C        3.780     -47.049      81.889
  O        3.051     -48.190      82.411
  C        3.642     -47.060      80.365
  O        4.802     -47.681      79.805
  C        2.430     -47.941      80.120
  O        2.442     -48.547      78.828
  C        2.521     -48.926      81.293
  N        1.221     -49.516      81.598
  C        1.030     -50.847      81.217
  O        1.931     -51.463      80.645
  N       -0.190     -51.432      81.438
  C       -1.164     -50.724      81.918
  N       -2.359     -51.352      82.087
  C       -1.029     -49.297      82.271
  C        0.180     -48.765      82.094
  O        2.728     -43.650      84.130
  O        4.929     -42.495      83.479
  H        2.432     -47.833      78.153
  H        3.163     -43.654      85.003
  H       -1.877     -48.741      82.643
  H        0.373     -47.723      82.318
  H        3.229     -49.734      81.063
  H        1.517     -47.339      80.200
  H        3.520     -46.063      79.936
  H        4.828     -47.177      82.187
  H       -2.417     -52.326      81.816
  H        2.270     -45.534      82.103
  H       -3.195     -50.888      82.409
  H        3.111     -45.930      83.622
  P        5.876     -46.711      79.114
  C        6.673     -45.447      81.239
  O        7.002     -46.359      80.199
  O        5.074     -45.338      78.938
  O        6.391     -47.221      77.808
  H        4.868     -45.191      77.996
  H        7.521     -45.315      81.879
  H        5.854     -45.835      81.808
  H        6.397     -44.505      80.813

 6  7  8  9  10  11  12  13  14  15  16  26  30  31  32  33  35 0
 6-311+G(2d,p)
 ****
 37  38 0
 6-311+G(2d,p)
 ****
 1  2  3  4  5  17  18  19  20  21  22  23  24  25 0
 3-21G
 ****
 27  28  29  34  36  39  40  41  42  43  44  45  46 0
 3-21G
 ****


