%nproc=1
%NoSave
%Mem=1900MB
#P OB98/GEN NMR

erre ene a

0 1
  C      669.443      66.005     735.992
  O      669.549      64.593     735.999
  H      668.682      66.303     736.716
  H      669.150      66.359     735.001
  H      670.402      66.452     736.279
  P      670.545      63.947     734.918
  C      668.600      63.706     733.196
  O      669.854      64.300     733.507
  C      668.607      63.199     731.752
  O      668.917      64.273     730.838
  C      669.654      62.121     731.468
  O      669.280      60.840     731.943
  C      669.688      62.182     729.957
  O      668.505      61.549     729.421
  C      669.655      63.711     729.720
  N      670.997      64.296     729.641
  C      671.814      63.828     728.608
  O      671.425      62.965     727.826
  N      673.097      64.331     728.506
  C      673.511      65.234     729.341
  N      674.782      65.685     729.194
  C      672.672      65.765     730.432
  C      671.442      65.256     730.518
  O      670.272      62.376     735.057
  O      671.979      64.337     735.027
  H      667.739      61.961     729.870
  H      670.731      61.885     734.326
  H      673.063      66.503     731.112
  H      670.768      65.601     731.295
  H      669.108      63.956     728.804
  H      670.545      61.668     729.521
  H      670.640      62.404     731.855
  H      667.595      62.846     731.517
  H      675.355      65.257     728.471
  H      667.817      64.466     733.320
  H      675.243      66.269     729.879
  H      668.396      62.868     733.871
  P      670.439      59.736     732.081
  C      670.094      58.791     729.676
  O      670.970      59.430     730.604
  O      669.635      58.405     732.467
  O      671.498      60.065     733.088
  H      670.158      57.846     733.071
  H      670.599      58.660     728.742
  H      669.225      59.398     729.530
  H      669.802      57.836     730.061

 6  7  8  9  10  11  12  13  14  15  16  26  30  31  32  33  35 0
 6-311+G(2d,p)
 ****
 37  38 0
 6-311+G(2d,p)
 ****
 1  2  3  4  5  17  18  19  20  21  22  23  24  25 0
 3-21G
 ****
 27  28  29  34  36  39  40  41  42  43  44  45  46 0
 3-21G
 ****


