%nproc=1
%NoSave
%Mem=1900MB
#P OB98/GEN NMR

erre ene a

0 1
  C      -51.579     124.734    -130.529
  O      -52.037     125.613    -129.522
  P      -51.975     127.197    -129.755
  C      -50.170     129.013    -130.015
  O      -50.429     127.621    -129.822
  C      -48.761     129.361    -129.531
  O      -48.676     129.237    -128.093
  C      -47.674     128.446    -130.082
  O      -47.369     128.778    -131.425
  C      -46.544     128.704    -129.093
  O      -45.839     129.911    -129.433
  C      -47.311     128.887    -127.772
  N      -46.029     127.064    -123.178
  C      -45.785     128.252    -123.776
  N      -46.130     128.645    -125.026
  C      -46.770     127.658    -125.673
  C      -47.060     126.387    -125.203
  C      -46.682     126.103    -123.875
  N      -46.985     124.920    -123.233
  N      -47.708     125.647    -126.178
  C      -47.791     126.460    -127.217
  N      -47.299     127.703    -126.937
  O      -52.814     128.013    -128.822
  O      -52.470     127.382    -131.265
  H      -45.391     129.759    -130.286
  H      -53.276     127.934    -131.281
  H      -45.248     128.981    -123.175
  H      -48.210     126.198    -128.180
  H      -46.907     129.713    -127.173
  H      -45.807     127.894    -129.069
  H      -47.987     127.395    -130.001
  H      -48.558     130.410    -129.796
  H      -50.910     129.583    -129.445
  H      -46.795     124.879    -122.241
  H      -47.717     124.330    -123.623
  H      -50.278     129.257    -131.076
  P      -47.035     127.613    -132.475
  C      -45.268     125.766    -132.708
  O      -45.768     126.816    -131.901
  O      -46.933     128.040    -133.905
  O      -48.231     126.565    -132.268
  H      -48.428     126.116    -133.116
  H      -45.910     124.886    -132.600
  H      -44.257     125.513    -132.373
  H      -45.231     126.062    -133.762
  H      -51.697     123.723    -130.200
  H      -50.545     124.927    -130.727
  H      -52.148     124.887    -131.422

 3  4  5  6  7  8  9  10  11  12  22  25  29  30  31  32 0
 6-311+G(2d,p)
 ****
 33  36  37 0
 6-311+G(2d,p)
 ****
 1  2  13  14  15  16  17  18  19  20  21  23  24  26 0
 3-21G
 ****
 27  28  34  35  38  39  40  41  42  43  44  45  46  47  48 0
 3-21G
 ****


