%nproc=1
%NoSave
%Mem=1900MB
#P OB98/GEN NMR

erre ene a

0 1
  C     -194.322     -19.624    -125.679
  O     -194.516     -20.947    -126.126
  H     -193.716     -19.649    -124.770
  H     -195.289     -19.170    -125.445
  H     -193.805     -19.020    -126.429
  P     -194.974     -21.189    -127.640
  C     -192.710     -22.074    -128.504
  O     -193.678     -21.035    -128.575
  C     -191.898     -22.186    -129.795
  O     -192.778     -22.396    -130.921
  C     -191.115     -20.910    -130.102
  O     -189.863     -20.796    -129.452
  C     -190.940     -21.009    -131.615
  O     -189.788     -21.801    -131.946
  C     -192.222     -21.715    -132.059
  N     -193.286     -18.200    -135.610
  C     -192.088     -18.835    -135.347
  N     -191.028     -18.439    -136.086
  N     -191.946     -19.756    -134.431
  C     -193.068     -19.979    -133.707
  C     -194.310     -19.403    -133.867
  C     -194.469     -18.422    -134.921
  O     -195.507     -17.826    -135.190
  N     -195.210     -19.884    -132.947
  C     -194.495     -20.691    -132.188
  N     -193.198     -20.802    -132.626
  O     -195.814     -19.868    -127.994
  O     -195.790     -22.424    -127.873
  H     -189.993     -22.735    -131.760
  H     -196.464     -20.066    -128.691
  H     -193.343     -17.518    -136.346
  H     -194.874     -21.237    -131.330
  H     -192.017     -22.479    -132.819
  H     -190.788     -20.026    -132.069
  H     -191.062     -17.655    -136.719
  H     -191.725     -20.027    -129.884
  H     -190.094     -18.680    -135.748
  H     -191.239     -23.061    -129.731
  H     -193.257     -23.001    -128.325
  H     -192.048     -21.918    -127.648
  P     -189.480     -19.445    -128.683
  C     -189.612     -20.660    -126.385
  O     -190.041     -19.583    -127.188
  O     -190.451     -18.367    -129.357
  O     -188.049     -19.046    -128.788
  H     -189.981     -17.885    -130.063
  H     -190.081     -20.599    -125.425
  H     -188.550     -20.615    -126.266
  H     -189.880     -21.584    -126.854

 6  7  8  9  10  11  12  13  14  15  26  29  33  34 0
 6-311+G(2d,p)
 ****
 36  38  39  40  41 0
 6-311+G(2d,p)
 ****
 1  2  3  4  5  16  17  18  19  20  21  22  23  24  25 0
 3-21G
 ****
 27  28  30  31  32  35  37  42  43  44  45  46  47 0
 3-21G
 ****
 48  49 0
 3-21G
 ****


