%nproc=1
%NoSave
%Mem=1900MB
#P OB98/GEN NMR

erre ene a

0 1
  C      129.288     110.861     -13.511
  O      128.068     110.699     -12.816
  H      130.069     110.246     -13.052
  H      129.151     110.536     -14.547
  H      129.591     111.913     -13.505
  P      128.066     111.086     -11.257
  C      128.899     108.761     -10.434
  O      129.184     110.144     -10.590
  C      129.590     108.243      -9.176
  O      131.027     108.349      -9.319
  C      129.239     109.025      -7.915
  O      128.011     108.613      -7.342
  C      130.413     108.663      -7.022
  O      130.235     107.334      -6.500
  C      131.583     108.692      -8.020
  N      135.477     111.556      -6.326
  C      135.131     110.271      -6.088
  N      134.090     109.576      -6.594
  C      133.376     110.338      -7.437
  C      133.610     111.660      -7.785
  C      134.719     112.281      -7.184
  N      135.059     113.600      -7.401
  N      132.645     112.111      -8.665
  C      131.855     111.072      -8.857
  N      132.236     109.987      -8.111
  O      126.698     110.462     -10.710
  O      128.213     112.540     -10.945
  H      131.042     107.112      -5.997
  H      126.485     110.826      -9.830
  H      135.770     109.731      -5.395
  H      130.993     111.059      -9.513
  H      132.358     107.952      -7.784
  H      130.516     109.334      -6.165
  H      129.250     110.108      -8.098
  H      129.345     107.179      -9.061
  H      129.272     108.218     -11.310
  H      135.776     113.991      -6.814
  H      134.419     114.185      -7.918
  H      127.816     108.618     -10.355
  P      127.065     109.752      -6.717
  C      127.738     108.850      -4.376
  O      127.571     109.988      -5.213
  O      125.670     108.993      -6.522
  O      126.927     110.981      -7.557
  H      124.917     109.607      -6.636
  H      128.077     109.164      -3.411
  H      128.460     108.190      -4.811
  H      126.803     108.340      -4.277

 6  7  8  9  10  11  12  13  14  15  25  28  32  33  34  35 0
 6-311+G(2d,p)
 ****
 36  39  40 0
 6-311+G(2d,p)
 ****
 1  2  3  4  5  16  17  18  19  20  21  22  23  24 0
 3-21G
 ****
 26  27  29  30  31  37  38  41  42  43  44  45  46  47 0
 3-21G
 ****
 48 0
 3-21G
 ****


