%nproc=1
%NoSave
%Mem=1900MB
#P OB98/GEN NMR

erre ene a

0 1
  C       66.033     -42.665      29.763
  O       64.707     -43.151      29.735
  H       66.556     -43.022      28.871
  H       66.549     -43.045      30.648
  H       66.045     -41.572      29.764
  P       63.706     -42.575      30.850
  C       63.750     -42.366      33.437
  O       64.454     -42.738      32.261
  C       63.518     -43.588      34.321
  O       64.756     -44.308      34.517
  C       62.991     -43.262      35.713
  O       61.582     -43.069      35.712
  C       63.370     -44.531      36.459
  O       62.442     -45.585      36.130
  C       64.753     -44.839      35.872
  N       67.895     -45.427      39.806
  C       66.871     -46.240      39.359
  N       66.644     -47.367      40.067
  N       66.130     -45.972      38.316
  C       66.462     -44.806      37.711
  C       67.456     -43.918      38.058
  C       68.272     -44.230      39.208
  O       69.207     -43.558      39.633
  N       67.497     -42.852      37.199
  C       66.519     -43.082      36.346
  N       65.855     -44.252      36.617
  O       62.549     -43.683      30.918
  O       63.146     -41.223      30.570
  H       62.479     -45.700      35.163
  H       61.696     -43.237      31.081
  H       68.427     -45.675      40.621
  H       66.253     -42.439      35.520
  H       64.948     -45.915      35.805
  H       63.342     -44.407      37.542
  H       67.145     -47.608      40.908
  H       63.518     -42.408      36.155
  H       65.922     -47.995      39.739
  H       62.829     -44.260      33.793
  H       62.784     -41.935      33.156
  H       64.333     -41.615      33.978
  P       60.968     -42.076      36.816
  C       61.448     -41.808      39.355
  O       61.405     -42.685      38.234
  O       59.399     -42.388      36.748
  O       61.265     -40.632      36.601
  H       58.892     -41.625      37.085
  H       61.754     -42.354      40.223
  H       60.476     -41.392      39.520
  H       62.146     -41.020      39.165

 6  7  8  9  10  11  12  13  14  15  26  29  33  34 0
 6-311+G(2d,p)
 ****
 36  38  39  40  41 0
 6-311+G(2d,p)
 ****
 1  2  3  4  5  16  17  18  19  20  21  22  23  24  25 0
 3-21G
 ****
 27  28  30  31  32  35  37  42  43  44  45  46  47 0
 3-21G
 ****
 48  49 0
 3-21G
 ****


