%nproc=1
%NoSave
%Mem=1900MB
#P OB98/GEN NMR

erre ene a

0 1
  C      275.966     254.505     251.581
  O      274.737     254.870     250.982
  H      276.518     253.869     250.886
  H      275.783     253.945     252.501
  H      276.570     255.392     251.797
  P      273.812     255.955     251.714
  C      274.094     257.690     249.824
  O      274.293     257.398     251.199
  C      274.648     259.077     249.477
  O      276.109     259.028     249.542
  C      274.282     259.572     248.058
  O      274.207     261.003     248.118
  C      275.490     259.109     247.270
  O      275.543     259.671     245.982
  C      276.599     259.490     248.264
  N      277.912     258.926     247.984
  C      278.932     259.807     247.632
  O      278.808     261.029     247.543
  N      280.148     259.232     247.371
  C      280.441     257.896     247.435
  O      281.559     257.443     247.220
  C      279.322     257.018     247.808
  C      278.129     257.562     248.064
  O      273.702     255.820     253.194
  O      272.388     255.777     250.999
  H      271.794     255.265     251.578
  H      274.662     259.598     245.564
  H      280.901     259.854     247.114
  H      279.516     255.953     247.858
  H      277.284     256.936     248.346
  H      276.681     260.580     248.331
  H      275.449     258.026     247.128
  H      273.325     259.173     247.703
  H      274.320     259.791     250.242
  H      273.021     257.660     249.612
  H      274.595     256.923     249.215
  P      273.001     261.801     248.811
  C      274.444     262.532     250.836
  O      273.274     261.848     250.394
  O      271.645     261.282     248.451
  O      273.172     263.327     248.352
  H      272.306     263.774     248.364
  H      274.502     262.486     251.903
  H      274.398     263.555     250.525
  H      275.310     262.068     250.412

 6  7  8  9  10  11  12  13  14  15  16  27  31  32  33  34  35 0
 6-311+G(2d,p)
 ****
 36  37 0
 6-311+G(2d,p)
 ****
 1  2  3  4  5  17  18  19  20  21  22  23  24  25 0
 3-21G
 ****
 26  28  29  30  38  39  40  41  42  43  44  45 0
 3-21G
 ****


