%nproc=1
%NoSave
%Mem=1900MB
#P OB98/GEN NMR

erre ene a

0 1
  C      592.112    -104.749    -203.701
  O      593.140    -104.248    -202.875
  H      591.431    -105.356    -203.089
  H      592.522    -105.373    -204.502
  H      591.543    -103.918    -204.140
  P      594.398    -103.534    -203.574
  C      596.274    -104.347    -205.165
  O      595.235    -104.725    -204.258
  C      597.224    -105.512    -205.445
  O      597.844    -105.958    -204.212
  C      596.519    -106.748    -205.998
  O      596.035    -106.588    -207.323
  C      597.518    -107.860    -205.703
  O      598.529    -108.010    -206.698
  C      598.163    -107.356    -204.378
  N      597.737    -108.154    -203.230
  C      598.751    -108.805    -202.546
  O      599.941    -108.765    -202.878
  N      598.352    -109.565    -201.471
  C      597.066    -109.754    -201.072
  O      596.773    -110.486    -200.126
  C      596.043    -109.064    -201.848
  C      596.412    -108.291    -202.875
  O      595.223    -102.641    -202.696
  O      593.754    -102.780    -204.836
  H      598.081    -107.960    -207.566
  H      594.374    -102.097    -205.190
  H      599.077    -110.045    -200.955
  H      594.991    -109.193    -201.558
  H      595.662    -107.770    -203.473
  H      599.254    -107.416    -204.450
  H      597.018    -108.823    -205.605
  H      595.637    -106.949    -205.384
  H      598.018    -105.162    -206.110
  H      596.842    -103.524    -204.698
  H      595.829    -103.972    -206.102
  P      594.537    -106.913    -207.751
  C      593.169    -109.022    -208.461
  O      594.456    -108.461    -208.175
  O      593.844    -105.903    -208.607
  O      593.784    -106.919    -206.314
  H      592.886    -106.568    -206.451
  H      593.280    -110.053    -208.726
  H      592.721    -108.491    -209.275
  H      592.545    -108.941    -207.596

 6  7  8  9  10  11  12  13  14  15  16  26  31  32  33  34  35 0
 6-311+G(2d,p)
 ****
 36  37 0
 6-311+G(2d,p)
 ****
 1  2  3  4  5  17  18  19  20  21  22  23  24  25 0
 3-21G
 ****
 27  28  29  30  38  39  40  41  42  43  44  45 0
 3-21G
 ****


