%nproc=1
%NoSave
%Mem=1900MB
#P OB98/GEN NMR

erre ene a

0 1
  C      191.801     -65.079     -73.452
  O      190.581     -64.460     -73.871
  P      189.268     -64.740     -72.989
  C      187.070     -66.096     -73.404
  O      188.392     -65.797     -73.822
  C      186.694     -67.535     -73.776
  O      186.815     -67.719     -75.218
  C      187.549     -68.613     -73.094
  O      186.674     -69.712     -72.798
  C      188.536     -69.003     -74.175
  O      189.089     -70.293     -73.955
  C      187.654     -68.879     -75.423
  N      188.427     -68.772     -76.657
  C      189.258     -69.842     -76.974
  O      189.417     -70.809     -76.233
  N      189.939     -69.736     -78.160
  C      189.930     -68.656     -78.996
  O      190.559     -68.616     -80.046
  C      189.120     -67.511     -78.549
  C      188.423     -67.622     -77.420
  O      188.481     -63.359     -73.143
  O      189.587     -65.136     -71.584
  H      188.565     -62.961     -74.027
  H      189.516     -70.602     -74.779
  H      190.525     -70.517     -78.425
  H      189.134     -66.614     -79.159
  H      187.838     -66.790     -77.050
  H      186.988     -69.749     -75.507
  H      189.357     -68.274     -74.211
  H      188.023     -68.258     -72.172
  H      185.635     -67.684     -73.521
  H      186.364     -65.412     -73.884
  H      186.989     -65.931     -72.324
  P      186.684     -70.309     -71.304
  C      187.986     -72.233     -70.089
  O      187.745     -71.507     -71.277
  O      185.273     -71.083     -71.301
  O      186.783     -69.291     -70.213
  H      185.139     -71.627     -72.093
  H      188.552     -73.135     -70.338
  H      187.049     -72.531     -69.616
  H      188.575     -71.628     -69.397
  H      192.588     -64.809     -74.125
  H      191.680     -66.142     -73.453
  H      192.047     -64.749     -72.464

 3  4  5  6  7  8  9  10  11  12  13  24  28  29  30  31  32 0
 6-311+G(2d,p)
 ****
 33  34 0
 6-311+G(2d,p)
 ****
 1  2  14  15  16  17  18  19  20  21  22  23  25  26  27 0
 3-21G
 ****
 35  36  37  38  39  40  41  42  43  44  45 0
 3-21G
 ****


