%nproc=1
%NoSave
%Mem=1900MB
#P OB98/GEN NMR

erre ene a

0 1
  C      -27.106     283.317     438.070
  O      -28.516     283.456     438.048
  H      -26.841     282.368     437.596
  H      -26.731     283.310     439.097
  H      -26.643     284.129     437.509
  P      -29.173     284.623     438.927
  C      -28.912     282.890     440.822
  O      -29.741     283.897     440.247
  C      -29.166     282.751     442.323
  O      -28.416     281.643     442.865
  C      -28.729     283.957     443.141
  O      -29.465     285.135     442.906
  C      -28.673     283.382     444.545
  O      -29.954     283.349     445.169
  C      -28.184     281.934     444.266
  N      -26.789     281.742     444.633
  C      -26.510     281.744     445.993
  O      -27.367     281.928     446.863
  N      -25.196     281.573     446.337
  C      -24.152     281.443     445.465
  O      -22.993     281.309     445.839
  C      -24.498     281.483     444.038
  C      -25.786     281.624     443.690
  O      -30.188     285.475     438.220
  O      -27.917     285.446     439.479
  H      -30.541     282.826     444.591
  H      -28.191     286.327     439.831
  H      -24.978     281.562     447.322
  H      -23.697     281.394     443.319
  H      -26.070     281.655     442.641
  H      -28.791     281.213     444.831
  H      -28.009     283.946     445.201
  H      -27.687     284.203     442.866
  H      -30.232     282.537     442.471
  H      -27.865     283.185     440.655
  H      -29.092     281.937     440.314
  P      -28.814     286.584     442.778
  C      -28.963     287.291     445.292
  O      -29.395     287.508     443.959
  O      -28.729     287.165     441.407
  O      -27.303     286.307     443.287
  H      -26.713     286.898     442.772
  H      -29.447     287.990     445.942
  H      -27.903     287.425     445.350
  H      -29.213     286.294     445.590

 6  7  8  9  10  11  12  13  14  15  16  26  31  32  33  34  35 0
 6-311+G(2d,p)
 ****
 36  37 0
 6-311+G(2d,p)
 ****
 1  2  3  4  5  17  18  19  20  21  22  23  24  25 0
 3-21G
 ****
 27  28  29  30  38  39  40  41  42  43  44  45 0
 3-21G
 ****


