%nproc=1
%NoSave
%Mem=1900MB
#P OB98/GEN NMR

erre ene a

0 1
  C      103.662    -194.889     -35.146
  O      103.616    -194.006     -36.249
  H      102.760    -194.749     -34.546
  H      104.535    -194.672     -34.524
  H      103.699    -195.924     -35.494
  P      104.883    -194.008     -37.232
  C      103.770    -195.572     -38.983
  O      104.826    -195.387     -38.051
  C      104.306    -195.414     -40.402
  O      105.339    -196.395     -40.649
  C      103.265    -195.639     -41.488
  O      102.420    -194.517     -41.665
  C      104.156    -195.902     -42.691
  O      104.594    -194.677     -43.299
  C      105.344    -196.664     -42.065
  N      105.291    -198.093     -42.351
  C      105.762    -198.477     -43.604
  O      106.197    -197.678     -44.433
  N      105.680    -199.812     -43.890
  C      105.150    -200.773     -43.080
  O      105.039    -201.942     -43.427
  C      104.682    -200.312     -41.762
  C      104.763    -199.012     -41.465
  O      106.117    -194.208     -36.233
  O      105.031    -192.785     -38.074
  H      106.573    -193.358     -36.093
  H      105.117    -194.933     -44.084
  H      106.004    -200.107     -44.797
  H      104.261    -201.052     -41.091
  H      104.405    -198.647     -40.508
  H      106.294    -196.277     -42.456
  H      103.633    -196.468     -43.462
  H      102.684    -196.544     -41.275
  H      104.753    -194.415     -40.495
  H      102.993    -194.820     -38.809
  H      103.336    -196.567     -38.837
  P      101.013    -194.726     -42.406
  C      100.151    -195.837     -40.186
  O      100.239    -195.876     -41.599
  O      101.479    -195.441     -43.756
  O      100.240    -193.465     -42.593
  H      102.232    -196.043     -43.628
  H       99.599    -196.686     -39.839
  H       99.652    -194.940     -39.884
  H      101.135    -195.856     -39.767

 6  7  8  9  10  11  12  13  14  15  16  27  31  32  33  34  35 0
 6-311+G(2d,p)
 ****
 36  37 0
 6-311+G(2d,p)
 ****
 1  2  3  4  5  17  18  19  20  21  22  23  24  25 0
 3-21G
 ****
 26  28  29  30  38  39  40  41  42  43  44  45 0
 3-21G
 ****


