%nproc=1
%NoSave
%Mem=1900MB
#P OB98/GEN NMR

erre ene a

0 1
  C      -74.525     122.170     131.785
  O      -74.259     120.869     131.299
  H      -75.364     122.590     131.224
  H      -73.651     122.811     131.643
  H      -74.792     122.131     132.845
  P      -73.036     120.087     131.982
  C      -71.417     120.713     130.055
  O      -71.698     120.795     131.444
  C      -69.928     120.474     129.827
  O      -69.141     121.505     130.466
  C      -69.415     119.142     130.360
  O      -69.668     118.091     129.444
  C      -67.930     119.438     130.520
  O      -67.232     119.327     129.264
  C      -67.944     120.892     131.012
  N      -65.038     120.644     135.132
  C      -64.708     120.510     133.800
  N      -63.417     120.212     133.529
  N      -65.563     120.643     132.821
  C      -66.821     120.907     133.245
  C      -67.271     121.079     134.534
  C      -66.305     120.959     135.605
  O      -66.522     121.132     136.801
  N      -68.613     121.354     134.559
  C      -68.982     121.309     133.293
  N      -67.932     121.024     132.459
  O      -73.029     118.673     131.229
  O      -73.128     119.921     133.460
  H      -66.298     119.565     129.395
  H      -72.698     117.988     131.840
  H      -64.331     120.547     135.839
  H      -69.988     121.473     132.933
  H      -67.087     121.462     130.636
  H      -67.451     118.737     131.206
  H      -62.817     119.780     134.218
  H      -69.850     118.923     131.344
  H      -63.171     120.090     132.555
  H      -69.745     120.550     128.747
  H      -71.707     121.654     129.576
  H      -72.000     119.895     129.617
  P      -69.448     116.585     129.956
  C      -67.916     115.984     127.942
  O      -68.042     116.103     129.353
  O      -70.517     115.747     129.110
  O      -69.619     116.396     131.425
  H      -70.663     114.876     129.526
  H      -66.927     115.655     127.699
  H      -68.098     116.935     127.486
  H      -68.628     115.272     127.579

 6  7  8  9  10  11  12  13  14  15  26  29  33  34 0
 6-311+G(2d,p)
 ****
 36  38  39  40  41 0
 6-311+G(2d,p)
 ****
 1  2  3  4  5  16  17  18  19  20  21  22  23  24  25 0
 3-21G
 ****
 27  28  30  31  32  35  37  42  43  44  45  46  47 0
 3-21G
 ****
 48  49 0
 3-21G
 ****


