%nproc=1
%NoSave
%Mem=1900MB
#P OB98/GEN NMR

erre ene a

0 1
  C     -133.352     -44.614     -98.459
  O     -132.929     -43.294     -98.190
  H     -134.421     -44.600     -98.694
  H     -133.195     -45.242     -97.579
  H     -132.810     -45.027     -99.315
  P     -131.348     -43.064     -98.025
  C     -129.512     -43.992     -96.441
  O     -130.899     -43.899     -96.729
  C     -129.300     -44.321     -94.967
  O     -129.733     -43.219     -94.138
  C     -130.067     -45.546     -94.481
  O     -129.384     -46.754     -94.788
  C     -130.082     -45.290     -92.984
  O     -128.795     -45.618     -92.420
  C     -130.317     -43.775     -92.926
  N     -134.173     -42.674     -89.823
  C     -132.871     -43.036     -89.528
  N     -132.554     -43.130     -88.220
  N     -131.963     -43.291     -90.434
  C     -132.425     -43.170     -91.702
  C     -133.688     -42.815     -92.120
  C     -134.680     -42.529     -91.108
  O     -135.840     -42.179     -91.314
  N     -133.776     -42.788     -93.486
  C     -132.575     -43.146     -93.896
  N     -131.718     -43.395     -92.852
  O     -131.245     -41.540     -97.534
  O     -130.535     -43.294     -99.253
  H     -128.873     -45.503     -91.456
  H     -130.443     -41.138     -97.923
  H     -134.834     -42.498     -89.087
  H     -132.274     -43.236     -94.930
  H     -129.812     -43.307     -92.073
  H     -130.824     -45.895     -92.461
  H     -133.219     -42.995     -87.472
  H     -131.096     -45.554     -94.860
  H     -131.599     -43.362     -87.977
  H     -128.221     -44.450     -94.802
  H     -129.032     -43.033     -96.671
  H     -129.069     -44.771     -97.069
  P     -130.273     -48.073     -95.021
  C     -131.269     -49.897     -93.460
  O     -130.506     -48.698     -93.561
  O     -129.237     -49.090     -95.697
  O     -131.493     -47.874     -95.855
  H     -129.720     -49.768     -96.207
  H     -131.338     -50.190     -92.433
  H     -130.791     -50.673     -94.021
  H     -132.251     -49.729     -93.850

 6  7  8  9  10  11  12  13  14  15  26  29  33  34 0
 6-311+G(2d,p)
 ****
 36  38  39  40  41 0
 6-311+G(2d,p)
 ****
 1  2  3  4  5  16  17  18  19  20  21  22  23  24  25 0
 3-21G
 ****
 27  28  30  31  32  35  37  42  43  44  45  46  47 0
 3-21G
 ****
 48  49 0
 3-21G
 ****


