%nproc=1
%NoSave
%Mem=1900MB
#P OB98/GEN NMR

erre ene a

0 1
  C      -49.093    -142.377    -595.140
  O      -47.756    -142.817    -595.275
  H      -49.164    -141.313    -595.380
  H      -49.723    -142.940    -595.834
  H      -49.450    -142.553    -594.120
  P      -46.672    -142.088    -594.343
  C      -46.772    -140.012    -595.886
  O      -46.864    -140.507    -594.559
  C      -46.242    -138.581    -595.878
  O      -47.218    -137.741    -595.197
  C      -44.890    -138.412    -595.167
  O      -43.971    -137.686    -595.994
  C      -45.214    -137.571    -593.943
  O      -44.165    -136.677    -593.591
  C      -46.479    -136.831    -594.371
  N      -47.173    -133.064    -591.001
  C      -46.595    -133.075    -592.223
  N      -46.530    -134.094    -593.112
  C      -47.172    -135.179    -592.648
  C      -47.829    -135.307    -591.428
  C      -47.794    -134.190    -590.578
  N      -48.335    -134.197    -589.310
  N      -48.365    -136.578    -591.299
  C      -48.002    -137.213    -592.397
  N      -47.264    -136.409    -593.231
  O      -45.283    -142.403    -595.079
  O      -46.658    -142.555    -592.924
  H      -44.093    -136.018    -594.302
  H      -44.713    -142.914    -594.473
  H      -46.115    -132.148    -592.526
  H      -48.202    -138.258    -592.614
  H      -46.245    -135.946    -594.978
  H      -45.410    -138.237    -593.093
  H      -44.442    -139.370    -594.881
  H      -46.177    -138.225    -596.915
  H      -47.762    -140.027    -596.357
  H      -48.168    -133.401    -588.722
  H      -48.705    -135.072    -588.946
  H      -46.099    -140.664    -596.463
  P      -42.613    -138.451    -596.393
  C      -41.195    -137.975    -594.266
  O      -41.902    -138.946    -595.040
  O      -41.674    -137.272    -596.928
  O      -42.809    -139.511    -597.433
  H      -41.373    -137.471    -597.837
  H      -40.777    -138.445    -593.400
  H      -41.869    -137.202    -593.962
  H      -40.410    -137.551    -594.856

 6  7  8  9  10  11  12  13  14  15  25  28  32  33  34  35 0
 6-311+G(2d,p)
 ****
 36  39  40 0
 6-311+G(2d,p)
 ****
 1  2  3  4  5  16  17  18  19  20  21  22  23  24 0
 3-21G
 ****
 26  27  29  30  31  37  38  41  42  43  44  45  46  47  48 0
 3-21G
 ****


