%nproc=1
%NoSave
%Mem=1900MB
#P OB98/GEN NMR

erre ene a

0 1
  C     -197.833      96.800     157.861
  O     -196.649      97.191     158.527
  H     -198.479      97.667     157.698
  H     -197.569      96.371     156.891
  H     -198.365      96.046     158.449
  P     -196.822      97.883     159.964
  C     -196.092     100.054     158.729
  O     -196.982      99.451     159.660
  C     -196.655     101.405     158.298
  O     -195.688     102.108     157.484
  C     -197.916     101.301     157.446
  O     -199.087     101.126     158.225
  C     -197.907     102.658     156.763
  O     -198.357     103.669     157.682
  C     -196.413     102.842     156.459
  N     -195.665     104.071     151.543
  C     -196.001     104.817     152.619
  N     -196.159     104.417     153.897
  C     -195.924     103.102     154.018
  C     -195.565     102.215     153.014
  C     -195.440     102.747     151.719
  N     -195.129     101.987     150.615
  N     -195.430     100.938     153.522
  C     -195.682     101.057     154.809
  N     -196.018     102.340     155.151
  O     -195.360      97.789     160.611
  O     -197.886      97.312     160.840
  H     -199.138     103.308     158.145
  H     -195.400      97.977     161.569
  H     -196.168     105.873     152.425
  H     -195.649     100.249     155.529
  H     -196.096     103.890     156.513
  H     -198.567     102.697     155.893
  H     -197.824     100.519     156.685
  H     -196.835     102.006     159.197
  H     -195.991      99.401     157.856
  H     -195.209     102.428     149.713
  H     -195.106     100.982     150.710
  H     -195.111     100.186     159.196
  P     -200.278     100.255     157.589
  C     -201.839     102.332     157.570
  O     -201.232     101.291     156.816
  O     -201.142      99.843     158.869
  O     -199.829      99.069     156.799
  H     -201.557      98.968     158.741
  H     -202.440     102.936     156.924
  H     -201.079     102.937     158.019
  H     -202.454     101.906     158.335

 6  7  8  9  10  11  12  13  14  15  25  28  32  33  34  35 0
 6-311+G(2d,p)
 ****
 36  39  40 0
 6-311+G(2d,p)
 ****
 1  2  3  4  5  16  17  18  19  20  21  22  23  24 0
 3-21G
 ****
 26  27  29  30  31  37  38  41  42  43  44  45  46  47 0
 3-21G
 ****
 48 0
 3-21G
 ****


