%nproc=1
%NoSave
%Mem=1900MB
#P OB98/GEN NMR

erre ene a

0 1
  C      438.907     161.369     410.014
  O      438.560     160.270     410.843
  P      439.561     159.752     411.974
  C      438.747     161.184     414.020
  O      438.851     159.925     413.392
  C      437.281     161.432     414.406
  O      436.496     161.680     413.221
  C      436.678     160.228     415.128
  O      436.778     160.392     416.535
  C      435.253     160.218     414.615
  O      434.443     161.163     415.337
  C      435.442     160.679     413.152
  N      435.839     159.673     412.146
  C      435.620     159.929     410.795
  O      435.145     160.974     410.365
  N      435.965     158.915     409.934
  C      436.526     157.719     410.290
  O      436.603     156.744     409.554
  C      436.970     157.624     411.683
  C      436.600     158.578     412.533
  O      440.698     160.872     411.993
  O      440.125     158.383     411.757
  H      434.343     160.819     416.244
  H      441.479     160.584     411.476
  H      435.680     159.039     408.965
  H      437.551     156.754     411.980
  H      436.884     158.507     413.584
  H      434.537     161.175     412.771
  H      434.790     159.238     414.769
  H      437.176     159.304     414.805
  H      437.230     162.326     415.041
  H      439.107     161.969     413.347
  H      439.381     161.212     414.916
  P      437.040     159.114     417.460
  C      439.591     159.377     417.301
  O      438.458     159.387     418.158
  O      436.897     157.785     416.783
  O      435.980     159.295     418.645
  H      435.184     158.748     418.469
  H      440.450     159.754     417.857
  H      439.414     160.020     416.432
  H      439.788     158.357     416.970
  H      438.111     161.561     409.325
  H      439.800     161.139     409.472
  H      439.071     162.235     410.620

 3  4  5  6  7  8  9  10  11  12  13  23  28  29  30  31  32 0
 6-311+G(2d,p)
 ****
 33  34 0
 6-311+G(2d,p)
 ****
 1  2  14  15  16  17  18  19  20  21  22  24  25  26  27 0
 3-21G
 ****
 35  36  37  38  39  40  41  42  43  44  45 0
 3-21G
 ****


