%nproc=1
%NoSave
%Mem=1900MB
#P OB98/GEN NMR

erre ene a

0 1
  C      317.742     123.031     839.707
  O      318.291     123.694     838.564
  P      318.049     125.275     838.441
  C      320.456     125.731     837.534
  O      319.052     125.857     837.327
  C      321.219     126.624     836.561
  O      320.938     126.272     835.198
  C      320.835     128.093     836.678
  O      321.459     128.687     837.802
  C      321.318     128.651     835.341
  O      322.676     129.114     835.409
  C      321.201     127.431     834.391
  N      320.170     127.608     833.375
  C      320.592     127.451     832.041
  O      321.776     127.203     831.799
  N      319.665     127.617     831.046
  C      318.432     127.933     831.339
  N      317.568     128.077     830.304
  C      317.961     128.126     832.722
  C      318.878     127.956     833.683
  O      318.646     125.838     839.812
  O      316.610     125.656     838.252
  H      323.139     128.499     836.007
  H      318.140     126.628     840.098
  H      316.935     128.391     832.924
  H      318.614     128.078     834.728
  H      322.154     127.258     833.881
  H      320.709     129.506     835.023
  H      319.745     128.192     836.745
  H      322.308     126.502     836.742
  H      317.933     127.934     829.358
  H      320.761     124.684     837.408
  H      316.606     128.325     830.421
  H      320.689     125.988     838.579
  P      320.591     129.686     838.689
  C      321.623     128.770     840.857
  O      321.454     129.908     840.038
  O      319.405     128.753     839.210
  O      320.071     130.933     838.025
  H      318.746     129.259     839.694
  H      322.386     128.998     841.614
  H      321.966     127.911     840.272
  H      320.693     128.532     841.368
  H      317.977     121.988     839.662
  H      316.679     123.157     839.716
  H      318.159     123.452     840.598

 3  4  5  6  7  8  9  10  11  12  13  21  23  27  28  29  30  32 0
 6-311+G(2d,p)
 ****
 34  35 0
 6-311+G(2d,p)
 ****
 1  2  14  15  16  17  18  19  20  22  24  25  26 0
 3-21G
 ****
 31  33  36  37  38  39  40  41  42  43  44  45  46 0
 3-21G
 ****


