%nproc=1
%NoSave
%Mem=1900MB
#P OB98/GEN NMR

erre ene a

0 1
  C      -34.124      36.084       9.782
  O      -33.938      37.426       9.378
  H      -34.157      36.047      10.874
  H      -33.294      35.464       9.433
  H      -35.066      35.698       9.385
  P      -33.758      37.676       7.801
  C      -31.314      36.806       8.086
  O      -32.552      36.692       7.401
  C      -30.266      35.933       7.405
  O      -30.779      34.601       7.184
  C      -29.836      36.435       6.031
  O      -28.909      37.506       6.100
  C      -29.204      35.177       5.467
  O      -27.906      34.981       6.058
  C      -30.202      34.100       5.948
  N      -31.253      33.812       4.971
  C      -30.918      32.941       3.927
  O      -29.788      32.462       3.849
  N      -31.865      32.657       2.972
  C      -33.046      33.186       3.056
  N      -33.940      32.882       2.077
  C      -33.446      34.094       4.147
  C      -32.513      34.361       5.057
  O      -33.069      39.118       7.724
  O      -34.988      37.535       6.970
  H      -27.455      35.844       6.042
  H      -32.801      39.312       6.794
  H      -34.439      34.519       4.169
  H      -32.734      35.023       5.887
  H      -29.683      33.164       6.188
  H      -29.062      35.216       4.385
  H      -30.697      36.703       5.411
  H      -29.408      35.844       8.083
  H      -33.618      32.307       1.310
  H      -31.461      36.482       9.122
  H      -34.812      33.382       1.960
  H      -30.978      37.847       8.082
  P      -29.142      38.757       5.120
  C      -27.796      37.474       3.308
  O      -28.966      38.216       3.620
  O      -27.831      39.642       5.347
  O      -30.395      39.534       5.376
  H      -28.043      40.595       5.344
  H      -27.822      37.184       2.278
  H      -27.753      36.600       3.924
  H      -26.932      38.079       3.487

 6  7  8  9  10  11  12  13  14  15  16  26  30  31  32  33  35 0
 6-311+G(2d,p)
 ****
 37  38 0
 6-311+G(2d,p)
 ****
 1  2  3  4  5  17  18  19  20  21  22  23  24  25 0
 3-21G
 ****
 27  28  29  34  36  39  40  41  42  43  44  45  46 0
 3-21G
 ****


