%nproc=1
%NoSave
%Mem=1900MB
#P OB98/GEN NMR

erre ene a

0 1
  C      -57.652      44.157     101.774
  O      -57.953      43.769     100.444
  P      -57.250      42.443      99.872
  C      -59.017      40.704     100.672
  O      -57.710      41.232     100.820
  C      -59.094      39.291     101.254
  O      -60.492      38.941     101.434
  C      -58.463      38.201     100.382
  O      -57.938      37.207     101.270
  C      -59.652      37.634      99.629
  O      -59.412      36.322      99.129
  C      -60.733      37.722     100.700
  N      -64.458      34.904      98.762
  C      -63.183      34.537      99.155
  N      -62.887      33.223      99.073
  N      -62.285      35.381      99.591
  C      -62.733      36.658      99.632
  C      -63.953      37.150      99.235
  C      -64.950      36.202      98.791
  O      -66.117      36.470      98.516
  N      -64.006      38.513      99.343
  C      -62.847      38.836      99.881
  N      -62.060      37.742     100.118
  O      -55.713      42.661     100.255
  O      -57.447      42.184      98.411
  H      -60.207      36.042      98.631
  H      -55.220      43.067      99.515
  H      -65.112      34.206      98.453
  H      -62.528      39.837     100.125
  H      -60.694      36.883     101.407
  H      -59.890      38.280      98.775
  H      -63.539      32.514      98.777
  H      -57.678      38.572      99.717
  H      -61.971      32.922      99.386
  H      -58.630      39.303     102.248
  H      -59.261      40.655      99.606
  H      -59.738      41.366     101.161
  P      -56.671      36.357     100.779
  C      -54.853      38.177     101.081
  O      -55.602      37.386     100.180
  O      -57.229      35.608      99.476
  O      -56.151      35.373     101.775
  H      -56.792      34.741      99.385
  H      -53.936      38.503     100.584
  H      -54.586      37.618     101.982
  H      -55.435      39.058     101.360
  H      -58.189      45.051     102.015
  H      -56.601      44.337     101.864
  H      -57.939      43.376     102.447

 3  4  5  6  7  8  9  10  11  12  23  26  30  31 0
 6-311+G(2d,p)
 ****
 33  35  36  37  38 0
 6-311+G(2d,p)
 ****
 1  2  13  14  15  16  17  18  19  20  21  22  24  25 0
 3-21G
 ****
 27  28  29  32  34  39  40  41  42  43  44  45  46  47  48  49 0
 3-21G
 ****


