%nproc=1
%NoSave
%Mem=1900MB
#P OB98/GEN NMR

erre ene a

0 1
  C      294.845      91.964     211.984
  O      295.447      91.297     213.096
  P      295.971      92.237     214.300
  C      298.277      91.156     214.864
  O      296.913      91.336     215.237
  C      298.949      90.092     215.728
  O      298.465      90.158     217.086
  C      298.677      88.656     215.292
  O      299.496      88.275     214.197
  C      299.039      87.883     216.549
  O      300.462      87.679     216.592
  C      298.596      88.835     217.674
  N      296.319      86.541     221.570
  C      297.665      86.704     221.306
  N      298.525      86.216     222.226
  N      298.124      87.300     220.237
  C      297.142      87.768     219.420
  C      295.785      87.669     219.570
  C      295.285      86.973     220.744
  O      294.102      86.771     221.024
  N      295.106      88.270     218.539
  C      296.071      88.766     217.781
  N      297.322      88.482     218.263
  O      294.659      92.451     215.188
  O      296.554      93.538     213.842
  H      300.882      88.562     216.513
  H      294.712      93.293     215.676
  H      296.019      86.065     222.412
  H      295.910      89.341     216.873
  H      299.344      88.909     218.471
  H      298.577      86.891     216.585
  H      298.240      85.808     223.105
  H      297.599      88.510     215.065
  H      299.515      86.362     222.065
  H      300.031      90.277     215.732
  H      298.820      92.094     214.953
  H      298.315      90.872     213.791
  P      298.811      88.204     212.744
  C      300.951      86.797     212.320
  O      299.939      87.629     211.769
  O      298.685      89.748     212.330
  O      297.486      87.505     212.715
  H      297.919      89.883     211.729
  H      300.535      86.086     213.026
  H      301.699      87.427     212.818
  H      301.446      86.247     211.502
  H      294.540      91.241     211.257
  H      295.553      92.635     211.545
  H      293.991      92.515     212.318

 3  4  5  6  7  8  9  10  11  12  23  26  30  31  33  0
 6-311+G(2d,p)
 ****
 35  36  37  38 0
 6-311+G(2d,p)
 ****
 1  2  13  14  15  16  17  18  19  20  21  22  24  25  27  28  29 0
 3-21G
 ****
 32  34  39  40  41  42  43  44  45  46  47  48  49 0
 3-21G
 ****


