%nproc=1
%NoSave
%Mem=1900MB
#P OB98/GEN NMR

erre ene a

0 1
  C     -497.814     121.722    -403.745
  O     -497.219     122.421    -402.671
  H     -498.898     121.847    -403.688
  H     -497.577     120.656    -403.684
  H     -497.463     122.127    -404.697
  P     -495.623     122.318    -402.545
  C     -495.104     120.779    -400.543
  O     -495.361     122.111    -400.972
  C     -494.792     120.754    -399.045
  O     -493.757     121.737    -398.770
  C     -495.998     121.091    -398.160
  O     -495.932     120.312    -396.968
  C     -495.770     122.556    -397.817
  O     -496.444     122.941    -396.625
  C     -494.247     122.608    -397.739
  N     -493.161     126.958    -395.323
  C     -493.477     125.727    -394.870
  N     -493.728     124.614    -395.588
  C     -493.573     124.853    -396.905
  C     -493.256     126.051    -397.516
  C     -493.057     127.152    -396.662
  N     -492.771     128.418    -397.113
  N     -493.239     125.901    -398.887
  C     -493.526     124.632    -399.101
  N     -493.755     123.962    -397.929
  O     -494.853     123.428    -403.176
  O     -495.340     120.859    -403.137
  H     -496.020     122.483    -395.865
  H     -495.953     120.195    -402.769
  H     -493.541     125.627    -393.788
  H     -493.592     124.152    -400.072
  H     -493.860     122.256    -396.770
  H     -496.139     123.189    -398.629
  H     -496.953     120.931    -398.660
  H     -494.372     119.772    -398.788
  H     -494.256     120.362    -401.101
  H     -492.639     129.151    -396.433
  H     -492.680     128.582    -398.105
  H     -495.992     120.178    -400.757
  P     -496.490     118.811    -396.982
  C     -497.271     118.815    -394.528
  O     -496.420     118.214    -395.497
  O     -495.927     117.924    -398.045
  O     -498.067     119.025    -397.192
  H     -498.400     118.362    -397.830
  H     -497.133     118.332    -393.583
  H     -498.291     118.712    -394.836
  H     -497.030     119.853    -394.436

 6  7  8  9  10  11  12  13  14  15  25  28  32  33  34  35 0
 6-311+G(2d,p)
 ****
 36  39  40 0
 6-311+G(2d,p)
 ****
 1  2  3  4  5  16  17  18  19  20  21  22  23  24 0
 3-21G
 ****
 26  27  29  30  31  37  38  41  42  43  44  45  46  47 0
 3-21G
 ****
 48 0
 3-21G
 ****


