%nproc=1
%NoSave
%Mem=1900MB
#P OB98/GEN NMR

erre ene a

0 1
  C      267.474      -6.733    -124.943
  O      267.792      -7.721    -123.981
  P      266.646      -8.689    -123.371
  C      266.667      -7.774    -120.937
  O      265.975      -7.826    -122.188
  C      266.162      -6.597    -120.130
  O      266.460      -5.360    -120.822
  C      264.657      -6.581    -119.860
  O      264.297      -7.517    -118.866
  C      264.442      -5.115    -119.512
  O      264.812      -4.860    -118.154
  C      265.426      -4.399    -120.461
  N      264.766      -3.866    -121.659
  C      264.580      -2.475    -121.694
  O      264.933      -1.755    -120.766
  N      263.987      -1.920    -122.818
  C      263.616      -2.694    -123.786
  N      263.105      -2.076    -124.897
  C      263.743      -4.161    -123.771
  C      264.330      -4.679    -122.688
  O      267.123     -10.031    -122.970
  O      265.504      -8.693    -124.486
  H      264.749      -3.891    -118.021
  H      265.618      -9.400    -125.175
  H      263.409      -4.745    -124.612
  H      264.485      -5.734    -122.609
  H      265.925      -3.588    -119.940
  H      263.399      -4.795    -119.651
  H      264.121      -6.832    -120.785
  H      266.701      -6.571    -119.164
  H      263.186      -1.063    -124.934
  H      267.743      -7.648    -121.138
  H      263.055      -2.551    -125.791
  H      266.516      -8.733    -120.410
  P      262.737      -7.793    -118.617
  C      262.574      -7.387    -116.050
  O      262.334      -6.888    -117.348
  O      262.717      -9.286    -118.072
  O      261.884      -7.626    -119.831
  H      262.456      -9.900    -118.768
  H      262.459      -6.586    -115.333
  H      263.602      -7.804    -115.981
  H      261.829      -8.173    -115.830
  H      268.362      -6.203    -125.217
  H      266.764      -6.048    -124.529
  H      267.056      -7.201    -125.810

 3  4  5  6  7  8  9  10  11  12  13  23  27  28  29  30  32 0
 6-311+G(2d,p)
 ****
 34  35 0
 6-311+G(2d,p)
 ****
 1  2  14  15  16  17  18  19  20  21  22  24  25  26 0
 3-21G
 ****
 31  33  36  37  38  39  40  41  42  43  44  45  46 0
 3-21G
 ****


