%nproc=1
%NoSave
%Mem=1900MB
#P OB98/GEN NMR

erre ene a

0 1
  C       22.783     -63.448     -41.963
  O       23.826     -62.537     -42.251
  H       21.963     -63.274     -42.664
  H       22.418     -63.286     -40.945
  H       23.134     -64.477     -42.074
  P       25.199     -62.732     -41.451
  C       25.834     -64.872     -42.833
  O       25.597     -64.286     -41.560
  C       26.776     -66.065     -42.689
  O       28.036     -65.670     -42.112
  C       26.267     -67.142     -41.746
  O       25.181     -67.867     -42.278
  C       27.531     -67.967     -41.561
  O       27.752     -68.834     -42.683
  C       28.612     -66.859     -41.506
  N       29.079     -66.602     -40.151
  C       30.234     -67.294     -39.764
  O       30.797     -68.053     -40.552
  N       30.702     -67.127     -38.484
  C       30.090     -66.324     -37.672
  N       30.598     -66.211     -36.417
  C       28.886     -65.557     -38.048
  C       28.438     -65.747     -39.287
  O       24.738     -62.592     -39.926
  O       26.306     -61.812     -41.850
  H       27.827     -68.255     -43.466
  H       24.008     -63.185     -39.684
  H       28.414     -64.892     -37.340
  H       27.560     -65.223     -39.643
  H       29.480     -67.136     -42.118
  H       27.482     -68.601     -40.674
  H       26.008     -66.702     -40.774
  H       26.969     -66.468     -43.692
  H       31.412     -66.768     -36.188
  H       26.245     -64.137     -43.531
  H       30.188     -65.643     -35.691
  H       24.868     -65.200     -43.230
  P       24.110     -68.560     -41.308
  C       22.400     -66.722     -40.742
  O       23.578     -67.405     -40.327
  O       24.584     -69.792     -40.615
  O       22.848     -68.798     -42.265
  H       22.476     -67.988     -42.657
  H       22.143     -65.980     -40.015
  H       21.596     -67.422     -40.837
  H       22.575     -66.250     -41.686

 6  7  8  9  10  11  12  13  14  15  16  26  30  31  32  33  35 0
 6-311+G(2d,p)
 ****
 37  38 0
 6-311+G(2d,p)
 ****
 1  2  3  4  5  17  18  19  20  21  22  23  24  25 0
 3-21G
 ****
 27  28  29  34  36  39  40  41  42  43  44  45  46 0
 3-21G
 ****


