%nproc=1
%NoSave
%Mem=1900MB
#P OB98/GEN NMR

erre ene a

0 1
  C     -191.834    -445.114    -194.148
  O     -191.433    -444.541    -192.918
  H     -192.752    -444.624    -194.479
  H     -192.028    -446.182    -194.018
  H     -191.060    -444.965    -194.905
  P     -190.084    -445.119    -192.269
  C     -191.370    -446.327    -190.349
  O     -190.508    -446.446    -191.471
  C     -191.485    -447.671    -189.619
  O     -190.142    -448.135    -189.283
  C     -192.270    -447.599    -188.300
  O     -192.877    -448.883    -188.075
  C     -191.157    -447.377    -187.290
  O     -191.613    -447.601    -185.975
  C     -190.110    -448.334    -187.852
  N     -186.266    -450.345    -185.148
  C     -187.451    -450.859    -185.544
  N     -188.419    -450.268    -186.273
  C     -188.059    -449.018    -186.618
  C     -186.882    -448.363    -186.297
  C     -185.954    -449.081    -185.515
  N     -184.752    -448.557    -185.105
  N     -186.874    -447.084    -186.824
  C     -188.027    -446.973    -187.455
  N     -188.776    -448.113    -187.350
  O     -189.752    -444.066    -191.112
  O     -188.941    -445.293    -193.212
  H     -190.860    -447.622    -185.343
  H     -189.116    -443.402    -191.438
  H     -187.650    -451.883    -185.232
  H     -188.367    -446.095    -187.993
  H     -190.369    -449.382    -187.657
  H     -190.799    -446.342    -187.324
  H     -193.043    -446.826    -188.297
  H     -191.913    -448.414    -190.301
  H     -192.359    -446.011    -190.702
  H     -190.976    -445.572    -189.662
  H     -184.149    -449.132    -184.537
  H     -184.515    -447.611    -185.358
  P     -194.318    -449.191    -188.718
  C     -195.520    -449.176    -186.392
  O     -195.453    -448.660    -187.715
  O     -194.430    -450.781    -188.534
  O     -194.483    -448.814    -190.153
  H     -195.003    -451.151    -189.230
  H     -196.331    -448.713    -185.869
  H     -194.602    -448.970    -185.882
  H     -195.677    -450.234    -186.429

 6  7  8  9  10  11  12  13  14  15  25  28  32  33  34  35 0
 6-311+G(2d,p)
 ****
 36  37  40 0
 6-311+G(2d,p)
 ****
 1  2  3  4  5  16  17  18  19  20  21  22  23  24 0
 3-21G
 ****
 26  27  29  30  31  38  39 41  42  43  44  45  46  47  48 0
 3-21G
 ****


