%nproc=1
%NoSave
%Mem=1900MB
#P OB98/GEN NMR

erre ene a

0 1
  C     -562.331    -723.160     364.694
  O     -561.725    -722.167     363.872
  P     -560.128    -722.036     363.764
  C     -559.856    -720.184     365.539
  O     -559.811    -720.526     364.164
  C     -558.794    -719.126     365.861
  O     -557.484    -719.712     365.708
  C     -558.822    -717.914     364.963
  O     -559.882    -717.035     365.311
  C     -557.425    -717.355     365.177
  O     -557.347    -716.627     366.407
  C     -556.576    -718.646     365.293
  N     -555.894    -719.003     364.062
  C     -554.998    -718.064     363.554
  O     -554.792    -716.995     364.153
  N     -554.294    -718.351     362.413
  C     -554.512    -719.473     361.790
  N     -553.759    -719.746     360.690
  C     -555.497    -720.476     362.253
  C     -556.145    -720.178     363.379
  O     -559.552    -722.474     362.466
  O     -559.576    -722.852     365.027
  H     -556.439    -716.731     366.750
  H     -559.434    -723.809     364.836
  H     -555.649    -721.384     361.700
  H     -556.859    -720.869     363.796
  H     -555.848    -718.554     366.099
  H     -557.086    -716.697     364.375
  H     -558.947    -718.213     363.908
  H     -558.905    -718.841     366.916
  H     -552.980    -719.116     360.520
  H     -559.656    -721.094     366.124
  H     -553.654    -720.690     360.343
  H     -560.858    -719.818     365.790
  P     -561.065    -716.826     364.247
  C     -560.848    -714.352     363.512
  O     -561.493    -715.275     364.361
  O     -562.302    -717.629     364.902
  O     -560.746    -717.310     362.869
  H     -562.395    -718.502     364.468
  H     -561.404    -713.415     363.532
  H     -560.817    -714.721     362.477
  H     -559.821    -714.168     363.868
  H     -563.396    -723.078     364.626
  H     -562.026    -723.017     365.710
  H     -562.026    -724.131     364.364

 3  4  5  6  7  8  9  10  11  12  13  23  27  28  29  30  32 0
 6-311+G(2d,p)
 ****
 34  35 0
 6-311+G(2d,p)
 ****
 1  2  14  15  16  17  18  19  20  21  22  24  25  26 0
 3-21G
 ****
 31  33  36  37  38  39  40  41  42  43  44  45  46 0
 3-21G
 ****


