%nproc=1
%NoSave
%Mem=1900MB
#P OB98/GEN NMR

erre ene a

0 1
  C       16.333     194.524     -69.122
  O       16.506     193.439     -70.005
  H       16.576     194.190     -68.110
  H       15.294     194.861     -69.131
  H       16.998     195.349     -69.388
  P       16.176     193.634     -71.564
  C       18.596     193.327     -72.363
  O       17.521     194.244     -72.208
  C       19.828     194.018     -72.947
  O       19.535     194.476     -74.295
  C       20.295     195.237     -72.137
  O       21.710     195.176     -71.944
  C       19.954     196.415     -73.037
  O       20.754     197.565     -72.776
  C       20.127     195.782     -74.420
  N       19.503     196.577     -75.469
  C       20.366     197.352     -76.251
  O       21.579     197.331     -76.040
  N       19.833     198.168     -77.212
  C       18.547     198.244     -77.350
  N       18.081     199.096     -78.303
  C       17.597     197.466     -76.528
  C       18.139     196.658     -75.618
  O       14.933     194.408     -71.846
  O       16.141     192.151     -72.164
  H       21.692     197.280     -72.701
  H       15.613     192.155     -72.996
  H       16.533     197.569     -76.679
  H       17.522     196.048     -74.966
  H       21.189     195.653     -74.663
  H       18.903     196.695     -72.883
  H       19.807     195.320     -71.166
  H       20.630     193.275     -73.044
  H       18.767     199.615     -78.839
  H       18.269     192.511     -73.018
  H       17.103     199.256     -78.484
  H       18.848     192.920     -71.379
  P       22.217     195.133     -70.422
  C       23.299     192.819     -70.877
  O       22.469     193.599     -70.028
  O       20.912     195.538     -69.588
  O       23.354     196.060     -70.148
  H       21.030     196.426     -69.200
  H       23.373     191.825     -70.488
  H       24.274     193.257     -70.923
  H       22.875     192.787     -71.859

 6  7  8  9  10  11  12  13  14  15  16  26  30  31  32  33  35 0
 6-311+G(2d,p)
 ****
 37  38 0
 6-311+G(2d,p)
 ****
 1  2  3  4  5  17  18  19  20  21  22  23  24  25 0
 3-21G
 ****
 27  28  29  34  36  39  40  41  42  43  44  45  46 0
 3-21G
 ****


