%nproc=1
%NoSave
%Mem=1900MB
#P OB98/GEN NMR

erre ene a

0 1
  C     -481.300    -584.496    -629.133
  O     -481.722    -583.992    -627.881
  H     -480.218    -584.623    -629.109
  H     -481.552    -583.790    -629.929
  H     -481.765    -585.465    -629.335
  P     -483.292    -583.829    -627.598
  C     -483.575    -586.131    -626.475
  O     -483.911    -585.308    -627.585
  C     -484.785    -586.286    -625.557
  O     -485.231    -584.984    -625.100
  C     -485.992    -586.930    -626.224
  O     -485.808    -588.325    -626.358
  C     -487.100    -586.510    -625.267
  O     -487.109    -587.339    -624.096
  C     -486.661    -585.072    -624.898
  N     -487.366    -584.051    -625.682
  C     -487.975    -583.032    -624.959
  O     -487.955    -582.970    -623.735
  N     -488.666    -582.112    -625.702
  C     -488.870    -582.154    -627.050
  O     -489.670    -581.435    -627.638
  C     -488.139    -583.207    -627.764
  C     -487.444    -584.099    -627.064
  O     -484.010    -582.850    -628.464
  O     -483.354    -583.403    -626.056
  H     -483.498    -582.444    -625.992
  H     -486.214    -587.274    -623.700
  H     -489.151    -581.396    -625.182
  H     -488.223    -583.238    -628.845
  H     -486.916    -584.905    -627.571
  H     -486.849    -584.872    -623.842
  H     -488.088    -586.579    -625.718
  H     -486.178    -586.459    -627.202
  H     -484.473    -586.861    -624.674
  H     -482.754    -585.659    -625.926
  H     -483.243    -587.109    -626.838
  P     -486.440    -589.132    -627.589
  C     -484.144    -589.196    -628.736
  O     -485.519    -588.864    -628.876
  O     -487.895    -588.908    -627.812
  O     -486.137    -590.665    -627.247
  H     -486.977    -591.173    -627.288
  H     -483.630    -588.978    -629.648
  H     -484.050    -590.238    -628.514
  H     -483.718    -588.622    -627.940

 6  7  8  9  10  11  12  13  14  15  16  27  31  32  33  34  35 0
 6-311+G(2d,p)
 ****
 36  37 0
 6-311+G(2d,p)
 ****
 1  2  3  4  5  17  18  19  20  21  22  23  24  25 0
 3-21G
 ****
 26  28  29  30  38  39  40  41  42  43  44  45 0
 3-21G
 ****


