%nproc=1
%NoSave
%Mem=1900MB
#P OB98/GEN NMR

erre ene a

0 1
  C     -308.961     -96.781    -100.580
  O     -308.736     -97.813     -99.641
  H     -309.899     -96.981    -101.104
  H     -308.148     -96.752    -101.310
  H     -309.039     -95.816    -100.070
  P     -307.385     -97.716     -98.780
  C     -306.526     -98.913     -96.646
  O     -307.650     -98.556     -97.437
  C     -306.938     -99.088     -95.187
  O     -307.180     -97.806     -94.566
  C     -308.203     -99.915     -94.984
  O     -307.918    -101.304     -95.014
  C     -308.652     -99.438     -93.611
  O     -307.923    -100.096     -92.557
  C     -308.309     -97.942     -93.662
  N     -313.136     -96.719     -92.837
  C     -312.307     -97.582     -92.153
  N     -312.864     -98.259     -91.126
  N     -311.050     -97.771     -92.452
  C     -310.641     -97.051     -93.522
  C     -311.360     -96.151     -94.273
  C     -312.744     -95.927     -93.911
  O     -313.513     -95.128     -94.436
  N     -310.591     -95.604     -95.267
  C     -309.420     -96.200     -95.142
  N     -309.406     -97.099     -94.108
  O     -307.380     -96.198     -98.265
  O     -306.132     -98.051     -99.514
  H     -308.041    -101.058     -92.637
  H     -306.457     -95.897     -98.172
  H     -314.091     -96.601     -92.549
  H     -308.560     -96.017     -95.771
  H     -307.991     -97.558     -92.687
  H     -309.709     -99.648     -93.437
  H     -313.862     -98.405     -91.067
  H     -308.963     -99.651     -95.729
  H     -312.268     -98.912     -90.632
  H     -306.091     -99.549     -94.660
  H     -305.776     -98.119     -96.714
  H     -306.097     -99.846     -97.029
  P     -309.146    -102.322     -94.821
  C     -309.905    -104.528     -95.970
  O     -308.928    -103.499     -95.889
  O     -310.392    -101.514     -95.415
  O     -309.378    -102.758     -93.414
  H     -311.227    -101.916     -95.109
  H     -309.619    -105.233     -96.723
  H     -310.853    -104.101     -96.223
  H     -309.978    -105.025     -95.025

 6  7  8  9  10  11  12  13  14  15  26  29  33  34 0
 6-311+G(2d,p)
 ****
 36  38  39  40  41 0
 6-311+G(2d,p)
 ****
 1  2  3  4  5  16  17  18  19  20  21  22  23  24  25 0
 3-21G
 ****
 27  28  30  31  32  35  37  42  43  44  45  46  47 0
 3-21G
 ****
 48  49 0
 3-21G
 ****


