%nproc=1
%NoSave
%Mem=1900MB
#P OB98/GEN NMR

erre ene a

0 1
  C       31.788      18.512     105.540
  O       30.773      17.538     105.391
  H       31.320      19.499     105.587
  H       32.470      18.488     104.686
  H       32.344      18.344     106.467
  P       31.203      16.001     105.255
  C       32.151      14.264     106.916
  O       32.010      15.644     106.596
  C       33.313      14.063     107.886
  O       34.560      14.403     107.252
  C       33.228      14.912     109.153
  O       32.362      14.312     110.101
  C       34.681      14.893     109.596
  O       34.984      13.625     110.212
  C       35.423      15.014     108.252
  N       38.485      19.011     108.891
  C       38.413      17.830     109.603
  N       39.252      17.708     110.652
  N       37.581      16.859     109.319
  C       36.753      17.148     108.289
  C       36.718      18.289     107.519
  C       37.688      19.327     107.801
  O       37.803      20.380     107.178
  N       35.678      18.261     106.624
  C       35.119      17.081     106.816
  N       35.729      16.369     107.825
  O       31.923      15.629     103.995
  O       29.834      15.192     105.427
  H       34.369      13.516     110.960
  H       29.414      15.023     104.563
  H       39.141      19.726     109.161
  H       34.278      16.691     106.257
  H       36.370      14.461     108.252
  H       34.912      15.670     110.328
  H       39.805      18.473     111.009
  H       32.939      15.943     108.926
  H       39.172      16.872     111.220
  H       33.360      12.994     108.134
  H       32.335      13.726     105.982
  H       31.229      13.881     107.365
  P       31.634      15.179     111.242
  C       29.748      16.945     111.112
  O       30.845      16.335     110.456
  O       32.531      15.664     112.327
  O       30.440      14.246     111.745
  H       30.721      13.604     112.445
  H       29.321      17.691     110.475
  H       30.084      17.401     112.020
  H       29.010      16.204     111.337

 6  7  8  9  10  11  12  13  14  15  26  29  33  34 0
 6-311+G(2d,p)
 ****
 36  38  39  40  41 0
 6-311+G(2d,p)
 ****
 1  2  3  4  5  16  17  18  19  20  21  22  23  24  25 0
 3-21G
 ****
 27  28  30  31  32  35  37  42  43  44  45  46  47 0
 3-21G
 ****
 48  49 0
 3-21G
 ****


