%nproc=1
%NoSave
%Mem=1900MB
#P OB98/GEN NMR

erre ene a

0 1
  C     -810.366    -609.597    -888.480
  O     -811.454    -608.929    -889.080
  P     -811.800    -609.341    -890.600
  C     -810.645    -608.911    -892.910
  O     -810.761    -608.524    -891.520
  C     -810.531    -607.669    -893.780
  O     -809.228    -607.120    -893.760
  C     -810.826    -607.934    -895.260
  O     -812.241    -608.067    -895.500
  C     -810.219    -606.724    -895.890
  O     -811.170    -605.615    -895.930
  C     -809.018    -606.409    -894.980
  N     -807.733    -606.711    -895.590
  C     -807.406    -605.949    -896.700
  O     -808.198    -605.083    -897.140
  N     -806.200    -606.192    -897.340
  C     -805.411    -607.118    -896.880
  N     -804.228    -607.324    -897.560
  C     -805.754    -607.981    -895.730
  C     -806.914    -607.721    -895.110
  O     -813.205    -608.600    -890.860
  O     -811.886    -610.817    -890.850
  H     -811.384    -605.431    -894.980
  H     -813.742    -609.054    -891.540
  H     -805.054    -608.750    -895.400
  H     -807.262    -608.291    -894.270
  H     -809.030    -605.348    -894.700
  H     -809.916    -606.917    -896.950
  H     -810.310    -608.862    -895.600
  H     -811.247    -606.903    -893.400
  H     -804.062    -606.734    -898.350
  H     -811.513    -609.501    -893.190
  H     -803.553    -608.022    -897.270
  H     -809.734    -609.543    -893.010
  P     -812.688    -608.769    -896.850
  C     -812.456    -608.222    -899.350
  O     -812.068    -607.854    -898.000
  O     -814.261    -608.384    -896.880
  O     -812.484    -610.262    -896.970
  H     -814.691    -608.845    -897.660
  H     -812.113    -607.403    -900.000
  H     -813.535    -608.316    -899.410
  H     -812.001    -609.166    -899.610
  H     -810.236    -609.240    -887.480
  H     -809.477    -609.408    -889.044
  H     -810.560    -610.649    -888.461

 3  4  5  6  7  8  9  10  11  12  13  21  23  27  28  29  30  32 0
 6-311+G(2d,p)
 ****
 34  35 0
 6-311+G(2d,p)
 ****
 1  2  14  15  16  17  18  19  20  22  24  25  26 0
 3-21G
 ****
 31  33  36  37  38  39  40  41  42  43  44  45  46 0
 3-21G
 ****


