%nproc=1
%NoSave
%Mem=1900MB
#P OB98/GEN NMR

erre ene a

0 1
  C      485.595      18.612     -10.242
  O      486.530      19.674     -10.302
  P      486.220      20.991      -9.434
  C      487.079      22.178     -11.583
  O      486.203      22.222     -10.466
  C      486.911      23.434     -12.436
  O      485.538      23.592     -12.843
  C      487.267      24.728     -11.717
  O      488.667      24.969     -11.699
  C      486.560      25.752     -12.588
  O      487.351      26.030     -13.763
  C      485.270      25.014     -12.976
  N      482.636      28.889     -11.065
  C      483.613      28.880     -12.042
  N      483.980      30.083     -12.534
  N      484.180      27.793     -12.495
  C      483.719      26.664     -11.904
  C      482.750      26.543     -10.929
  C      482.141      27.756     -10.427
  O      481.312      27.834      -9.525
  N      482.547      25.237     -10.584
  C      483.381      24.555     -11.348
  N      484.148      25.384     -12.134
  O      487.571      21.220      -8.611
  O      485.028      20.881      -8.541
  H      488.165      26.474     -13.452
  H      487.409      21.817      -7.861
  H      482.236      29.752     -10.745
  H      483.481      23.480     -11.354
  H      484.990      25.200     -14.016
  H      486.402      26.709     -12.081
  H      483.628      30.962     -12.182
  H      486.840      24.754     -10.707
  H      484.741      30.113     -13.206
  H      487.521      23.318     -13.342
  H      486.852      21.294     -12.183
  H      488.114      22.097     -11.227
  P      489.259      25.664     -10.381
  C      490.927      27.093     -11.778
  O      489.840      27.078     -10.870
  O      490.568      24.796     -10.074
  O      488.323      25.705      -9.222
  H      490.788      24.826      -9.124
  H      491.017      28.096     -12.203
  H      490.769      26.380     -12.590
  H      491.856      26.845     -11.246
  H      485.928      17.808     -10.864
  H      484.642      18.956     -10.584
  H      485.509      18.269      -9.232

 3  4  5  6  7  8  9  10  11  12  23  26  30  31 0
 6-311+G(2d,p)
 ****
 33  35  36  37  38 0
 6-311+G(2d,p)
 ****
 1  2  13  14  15  16  17  18  19  20  21  22  24  25 0
 3-21G
 ****
 27  28  29  32  34  39  40  41  42  43  44  45  46  47  48  49 0
 3-21G
 ****


