%nproc=1
%NoSave
%Mem=1900MB
#P OB98/GEN NMR

erre ene a

0 1
  C      459.752    -137.051    -293.821
  O      460.355    -136.026    -293.056
  H      460.215    -137.068    -294.810
  H      458.682    -136.861    -293.940
  H      459.906    -138.025    -293.345
  P      459.840    -135.796    -291.557
  C      462.262    -135.080    -291.019
  O      460.880    -134.777    -290.885
  C      463.091    -133.809    -290.894
  O      462.767    -133.115    -289.673
  C      464.599    -134.051    -290.870
  O      465.092    -134.235    -292.187
  C      465.075    -132.761    -290.225
  O      465.047    -131.694    -291.192
  C      463.997    -132.534    -289.153
  N      466.428    -131.995    -284.738
  C      466.417    -131.176    -285.850
  N      467.201    -130.079    -285.793
  N      465.717    -131.423    -286.928
  C      465.038    -132.591    -286.869
  C      464.981    -133.490    -285.829
  C      465.717    -133.183    -284.620
  O      465.738    -133.869    -283.604
  N      464.238    -134.597    -286.157
  C      463.813    -134.342    -287.383
  N      464.284    -133.146    -287.863
  O      459.593    -137.030    -290.743
  O      458.517    -134.915    -291.730
  H      465.320    -130.885    -290.723
  H      457.723    -135.477    -291.781
  H      467.001    -131.760    -283.946
  H      463.165    -134.991    -287.960
  H      463.805    -131.471    -288.970
  H      466.092    -132.822    -289.839
  H      467.959    -129.999    -285.124
  H      464.867    -134.886    -290.213
  H      467.249    -129.495    -286.617
  H      462.814    -133.143    -291.722
  H      462.407    -135.535    -292.004
  H      462.569    -135.797    -290.253
  P      466.540    -134.877    -292.447
  C      465.566    -135.253    -294.813
  O      466.707    -134.894    -294.041
  O      466.774    -136.193    -291.786
  O      467.567    -133.741    -292.004
  H      467.810    -133.778    -291.046
  H      465.816    -135.224    -295.853
  H      464.772    -134.563    -294.617
  H      465.253    -136.242    -294.549

 6  7  8  9  10  11  12  13  14  15  26  29  33  34 0
 6-311+G(2d,p)
 ****
 36  38  39  40  41 0
 6-311+G(2d,p)
 ****
 1  2  3  4  5  16  17  18  19  20  21  22  23  24  25 0
 3-21G
 ****
 27  28  30  31  32  35  37  42  43  44  45  46  47 0
 3-21G
 ****
 48  49 0
 3-21G
 ****


