%nproc=1
%NoSave
%Mem=1900MB
#P OB98/GEN NMR

erre ene a

0 1
  C       13.325       6.761    -299.688
  O       13.881       5.541    -299.234
  H       13.866       7.080    -300.584
  H       13.428       7.537    -298.926
  H       12.270       6.628    -299.943
  P       13.261       4.865    -297.922
  C       12.699       2.530    -298.873
  O       13.566       3.297    -298.045
  C       13.022       1.047    -298.740
  O       14.200       0.716    -299.504
  C       13.302       0.602    -297.303
  O       12.090       0.389    -296.604
  C       14.081      -0.685    -297.560
  O       13.169      -1.733    -297.936
  C       14.955      -0.284    -298.764
  N       19.585      -1.265    -296.937
  C       18.498      -2.101    -297.094
  N       18.652      -3.374    -296.665
  N       17.354      -1.724    -297.609
  C       17.324      -0.408    -297.927
  C       18.325       0.525    -297.801
  C       19.605       0.080    -297.286
  O       20.598       0.784    -297.141
  N       17.902       1.779    -298.167
  C       16.653       1.594    -298.551
  N       16.248       0.284    -298.409
  O       11.822       5.179    -297.629
  O       14.232       5.342    -296.743
  H       13.715      -2.530    -298.091
  H       13.904       6.160    -296.323
  H       20.429      -1.617    -296.518
  H       16.000       2.366    -298.940
  H       15.140      -1.121    -299.441
  H       14.636      -1.032    -296.694
  H       19.390      -3.636    -296.020
  H       13.970       1.307    -296.781
  H       17.853      -3.992    -296.731
  H       12.186       0.477    -299.172
  H       12.853       2.863    -299.906
  H       11.657       2.708    -298.601
  P       11.917       0.857    -295.078
  C        9.444       1.582    -295.282
  O       10.366       0.634    -294.749
  O       12.428       2.233    -294.783
  O       12.625      -0.292    -294.224
  H       13.595      -0.140    -294.074
  H        8.450       1.317    -294.989
  H        9.512       1.584    -296.350
  H        9.678       2.557    -294.908

 6  7  8  9  10  11  12  13  14  15  26  29  33  34 0
 6-311+G(2d,p)
 ****
 36  38  39  40  41 0
 6-311+G(2d,p)
 ****
 1  2  3  4  5  16  17  18  19  20  21  22  23  24  25 0
 3-21G
 ****
 27  28  30  31  32  35  37  42  43  44  45  46  47 0
 3-21G
 ****
 48  49 0
 3-21G
 ****


