%nproc=1
%NoSave
%Mem=1900MB
#P OB98/GEN NMR

erre ene a

0 1
  C      534.367    -208.378    -176.241
  O      534.143    -207.307    -175.355
  H      534.528    -209.287    -175.655
  H      535.260    -208.177    -176.841
  H      533.509    -208.537    -176.902
  P      533.431    -205.981    -175.910
  C      531.009    -206.862    -175.733
  O      531.958    -205.895    -175.278
  C      529.670    -206.720    -175.002
  O      529.790    -207.265    -173.665
  C      529.232    -205.260    -174.851
  O      528.502    -204.749    -175.958
  C      528.361    -205.323    -173.599
  O      526.998    -205.634    -173.924
  C      528.991    -206.459    -172.785
  N      529.842    -206.454    -167.737
  C      528.761    -206.973    -168.440
  N      527.776    -207.512    -167.689
  N      528.665    -206.932    -169.735
  C      529.676    -206.263    -170.345
  C      530.785    -205.700    -169.759
  C      530.929    -205.814    -168.319
  O      531.865    -205.387    -167.660
  N      531.586    -205.073    -170.683
  C      530.914    -205.189    -171.818
  N      529.793    -205.972    -171.677
  O      533.130    -206.337    -177.445
  O      534.246    -204.726    -175.816
  H      526.649    -204.910    -174.482
  H      533.168    -205.527    -177.984
  H      529.875    -206.536    -166.734
  H      531.217    -204.768    -172.771
  H      528.222    -207.115    -172.354
  H      528.349    -204.357    -173.086
  H      527.760    -207.493    -166.682
  H      530.093    -204.621    -174.637
  H      526.891    -207.727    -168.145
  H      528.912    -207.317    -175.526
  H      531.443    -207.841    -175.533
  H      530.868    -206.768    -176.809
  P      528.828    -203.304    -176.555
  C      530.831    -203.880    -178.158
  O      529.480    -203.494    -177.999
  O      530.052    -202.811    -175.661
  O      527.694    -202.326    -176.542
  H      529.744    -202.201    -174.946
  H      531.062    -203.949    -179.201
  H      530.987    -204.832    -177.695
  H      531.466    -203.152    -177.699

 6  7  8  9  10  11  12  13  14  15  26  29  33  34 0
 6-311+G(2d,p)
 ****
 36  38  39  40  41 0
 6-311+G(2d,p)
 ****
 1  2  3  4  5  16  17  18  19  20  21  22  23  24  25 0
 3-21G
 ****
 27  28  30  31  32  35  37  42  43  44  45  46  47 0
 3-21G
 ****
 48  49 0
 3-21G
 ****


