%nproc=1
%NoSave
%Mem=1900MB
#P OB98/GEN NMR

erre ene a

0 1
  C     -831.584    1143.056     -81.587
  O     -830.434    1142.439     -82.177
  P     -830.372    1140.859     -82.438
  C     -828.819    1140.641     -80.413
  O     -830.040    1140.210     -81.008
  C     -828.302    1139.550     -79.457
  O     -829.166    1139.512     -78.286
  C     -828.302    1138.140     -79.990
  O     -827.144    1137.788     -80.755
  C     -828.278    1137.341     -78.698
  O     -826.961    1137.296     -78.152
  C     -829.208    1138.151     -77.802
  N     -832.859    1135.885     -74.997
  C     -831.599    1136.298     -74.698
  N     -830.678    1136.845     -75.525
  C     -831.196    1137.075     -76.726
  C     -832.453    1136.748     -77.192
  C     -833.325    1136.150     -76.253
  N     -834.614    1135.749     -76.558
  N     -832.614    1137.092     -78.514
  C     -831.464    1137.648     -78.838
  N     -830.585    1137.678     -77.793
  O     -829.481    1140.452     -83.568
  O     -831.901    1140.447     -82.663
  H     -826.510    1136.506     -78.523
  H     -831.950    1139.554     -83.108
  H     -831.268    1136.101     -73.662
  H     -831.229    1138.040     -79.829
  H     -828.865    1138.177     -76.742
  H     -828.590    1136.297     -78.836
  H     -829.223    1137.905     -80.533
  H     -827.304    1139.849     -79.115
  H     -829.037    1141.539     -79.820
  H     -835.187    1135.434     -75.779
  H     -835.010    1136.067     -77.417
  H     -828.074    1140.867     -81.164
  P     -827.377    1136.798     -82.023
  C     -827.048    1134.587     -80.673
  O     -827.924    1135.427     -81.395
  O     -826.209    1136.701     -82.916
  O     -828.675    1137.440     -82.735
  H     -829.500    1137.354     -82.220
  H     -827.641    1133.775     -80.194
  H     -826.531    1135.134     -79.891
  H     -826.315    1134.131     -81.342
  H     -831.419    1144.110     -81.502
  H     -831.752    1142.642     -80.615
  H     -832.440    1142.877     -82.203

 3  4  5  6  7  8  9  10  11  12  22  25  29  30  31  32 0
 6-311+G(2d,p)
 ****
 33  36  37 0
 6-311+G(2d,p)
 ****
 1  2  13  14  15  16  17  18  19  20  21  23  24  26 0
 3-21G
 ****
 27  28  34  35  38  39  40  41  42  43  44  45  46  47  48 0
 3-21G
 ****


