%nproc=1
%NoSave
%Mem=1900MB
#P OB98/GEN NMR

erre ene a

0 1
  C      165.353      63.005     -93.598
  O      166.077      64.226     -93.777
  P      166.821      64.837     -92.495
  C      168.915      64.255     -91.061
  O      168.179      64.024     -92.258
  C      169.974      63.167     -90.875
  O      169.381      61.856     -90.882
  C      171.008      63.143     -91.988
  O      171.958      64.176     -91.808
  C      171.590      61.741     -91.849
  O      172.712      61.718     -90.951
  C      170.409      60.929     -91.272
  N      169.902      59.937     -92.205
  C      169.570      58.693     -91.657
  O      169.737      58.482     -90.454
  N      169.087      57.716     -92.490
  C      168.969      57.954     -93.760
  N      168.490      56.945     -94.536
  C      169.333      59.243     -94.381
  C      169.790      60.181     -93.554
  O      165.894      64.371     -91.276
  O      166.971      66.323     -92.535
  H      172.396      62.132     -90.122
  H      165.904      65.040     -90.568
  H      169.224      59.390     -95.446
  H      170.081      61.158     -93.924
  H      170.718      60.404     -90.358
  H      171.948      61.360     -92.810
  H      170.513      63.243     -92.961
  H      170.469      63.326     -89.907
  H      168.253      56.074     -94.077
  H      168.241      64.272     -90.203
  H      168.364      57.017     -95.535
  H      169.375      65.248     -91.118
  P      171.981      65.362     -92.882
  C      171.169      67.797     -92.801
  O      171.015      66.491     -92.276
  O      171.081      64.761     -94.065
  O      173.313      65.819     -93.372
  H      171.094      65.359     -94.833
  H      170.328      68.410     -92.465
  H      171.172      67.775     -93.893
  H      172.097      68.238     -92.431
  H      164.910      62.714     -94.527
  H      164.586      63.149     -92.867
  H      166.022      62.239     -93.266

 3  4  5  6  7  8  9  10  11  12  13  21  23  27  28  29  30  32 0
 6-311+G(2d,p)
 ****
 34  35 0
 6-311+G(2d,p)
 ****
 1  2  14  15  16  17  18  19  20  22  24  25  26 0
 3-21G
 ****
 31  33  36  37  38  39  40  41  42  43  44  45  46 0
 3-21G
 ****


