%nproc=1
%NoSave
%Mem=1900MB
#P OB98/GEN NMR

erre ene a

0 1
  C        3.350      -9.504       0.283
  O        4.297     -10.570       0.466
  P        4.562     -11.598      -0.741
  C        3.495     -13.821      -1.614
  O        3.425     -12.729      -0.709
  C        2.561     -14.945      -1.157
  O        2.948     -15.425       0.151
  C        1.104     -14.531      -1.012
  O        0.454     -14.432      -2.268
  C        0.559     -15.650      -0.134
  O        0.225     -16.806      -0.922
  C        1.760     -15.947       0.785
  N        1.589     -15.401       2.129
  C        1.094     -16.273       3.091
  O        0.752     -17.428       2.844
  N        0.968     -15.759       4.354
  C        1.220     -14.469       4.724
  O        1.070     -14.063       5.868
  C        1.663     -13.574       3.645
  C        1.819     -14.072       2.417
  O        5.845     -12.404      -0.215
  O        4.835     -10.979      -2.072
  H       -0.009     -17.516      -0.292
  H        6.362     -12.725      -0.978
  H        0.639     -16.383       5.074
  H        1.850     -12.537       3.891
  H        2.146     -13.423       1.610
  H        1.915     -17.029       0.866
  H       -0.348     -15.356       0.403
  H        1.038     -13.583      -0.466
  H        2.656     -15.778      -1.866
  H        4.521     -14.199      -1.645
  H        3.219     -13.473      -2.614
  P        0.009     -12.960      -2.735
  C       -2.059     -11.462      -2.179
  O       -1.397     -12.697      -2.015
  O       -0.353     -13.227      -4.272
  O        1.067     -11.932      -2.514
  H       -0.724     -14.115      -4.412
  H       -1.880     -11.038      -3.170
  H       -1.710     -10.761      -1.416
  H       -3.133     -11.619      -2.051
  H        3.295      -8.918       1.177
  H        2.386      -9.916       0.067
  H        3.663      -8.884      -0.531

 3  4  5  6  7  8  9  10  11  12  13  23  28  29  30  31  32 0
 6-311+G(2d,p)
 ****
 33  34 0
 6-311+G(2d,p)
 ****
 1  2  14  15  16  17  18  19  20  21  22  24  25  26 0
 3-21G
 ****
 27  35  36  37  38  39  40  41  42  43  44  45 0
 3-21G
 ****


