%nproc=1
%NoSave
%Mem=1900MB
#P OB98/GEN NMR

erre ene a

0 1
  C       37.746       1.078      17.439
  O       38.926       0.313      17.578
  H       36.914       0.520      17.877
  H       37.530       1.251      16.382
  H       37.839       2.034      17.961
  P       40.325       0.968      17.153
  C       41.290      -0.075      15.000
  O       40.409       0.893      15.555
  C       40.526      -1.364      14.707
  O       39.403      -1.092      13.839
  C       41.354      -2.422      13.991
  O       42.242      -3.067      14.883
  C       40.258      -3.312      13.429
  O       39.763      -4.214      14.430
  C       39.182      -2.275      13.038
  N       39.192      -1.956      11.611
  C       39.094      -3.032      10.735
  O       39.035      -4.203      11.106
  N       39.096      -2.717       9.401
  C       39.297      -1.475       8.873
  O       39.380      -1.260       7.669
  C       39.420      -0.380       9.846
  C       39.361      -0.666      11.148
  O       41.525       0.453      17.874
  O       40.106       2.531      17.425
  H       38.940      -4.598      14.071
  H       40.582       2.788      18.238
  H       39.040      -3.484       8.751
  H       39.565       0.621       9.465
  H       39.455       0.127      11.880
  H       38.183      -2.647      13.298
  H       40.607      -3.920      12.594
  H       41.904      -1.970      13.158
  H       40.131      -1.753      15.656
  H       42.088      -0.281      15.722
  H       41.734       0.331      14.085
  P       43.521      -3.842      14.315
  C       43.391      -6.408      14.275
  O       43.008      -5.198      13.631
  O       44.648      -4.008      15.279
  O       43.975      -2.957      13.061
  H       44.884      -2.630      13.208
  H       42.994      -7.241      13.733
  H       43.008      -6.417      15.274
  H       44.459      -6.475      14.302

 6  7  8  9  10  11  12  13  14  15  16  26  31  32  33  34  35 0
 6-311+G(2d,p)
 ****
 36  37 0
 6-311+G(2d,p)
 ****
 1  2  3  4  5  17  18  19  20  21  22  23  24  25 0
 3-21G
 ****
 27  28  29  30  38  39  40  41  42  43  44  45 0
 3-21G
 ****


