%nproc=1
%NoSave
%Mem=1900MB
#P OB98/GEN NMR

erre ene a

0 1
  C       14.163     536.114     391.516
  O       14.523     535.780     390.195
  H       14.869     536.859     391.894
  H       14.224     535.223     392.146
  H       13.154     536.531     391.563
  P       13.435     535.083     389.253
  C       14.723     532.850     389.374
  O       13.469     533.501     389.534
  C       15.051     531.949     390.567
  O       14.436     532.487     391.759
  C       14.516     530.527     390.395
  O       15.388     529.651     389.701
  C       14.332     530.082     391.844
  O       15.536     529.499     392.367
  C       14.005     531.390     392.573
  N       10.036     529.790     395.379
  C       11.294     529.231     395.260
  N       11.502     528.086     395.946
  N       12.242     529.744     394.522
  C       11.858     530.832     393.818
  C       10.634     531.466     393.841
  C        9.613     530.934     394.714
  O        8.489     531.400     394.867
  N       10.597     532.520     392.959
  C       11.764     532.471     392.347
  N       12.593     531.514     392.892
  O       14.086     535.187     387.790
  O       12.070     535.706     389.270
  H       16.185     530.221     392.500
  H       13.378     535.263     387.122
  H        9.357     529.367     395.983
  H       12.075     533.122     391.542
  H       14.548     531.461     393.525
  H       13.552     529.319     391.919
  H       10.780     527.603     396.457
  H       13.534     530.539     389.913
  H       12.341     527.543     395.737
  H       16.136     531.954     390.734
  H       15.471     533.635     389.279
  H       14.735     532.272     388.443
  P       14.964     529.013     388.300
  C       15.694     526.628     389.125
  O       14.724     527.448     388.509
  O       16.322     529.067     387.453
  O       13.836     529.696     387.596
  H       16.323     529.837     386.854
  H       15.336     525.621     389.165
  H       15.880     526.980     390.118
  H       16.601     526.662     388.559

 6  7  8  9  10  11  12  13  14  15  26  29  33  34 0
 6-311+G(2d,p)
 ****
 36  38  39  40  41 0
 6-311+G(2d,p)
 ****
 1  2  3  4  5  16  17  18  19  20  21  22  23  24  25 0
 3-21G
 ****
 27  28  30  31  32  35  37  42  43  44  45  46  47 0
 3-21G
 ****
 48  49 0
 3-21G
 ****


