%nproc=1
%NoSave
%Mem=1900MB
#P OB98/GEN NMR

erre ene a

0 1
  C      159.063    -283.528    -933.918
  O      159.801    -283.654    -932.720
  H      158.034    -283.229    -933.693
  H      159.522    -282.753    -934.540
  H      159.066    -284.473    -934.463
  P      159.262    -284.713    -931.643
  C      157.951    -283.282    -929.915
  O      159.169    -283.947    -930.230
  C      158.224    -282.083    -928.998
  O      158.948    -281.085    -929.767
  C      156.971    -281.426    -928.415
  O      157.027    -281.434    -926.982
  C      157.044    -279.981    -928.892
  O      156.649    -279.039    -927.887
  C      158.502    -279.807    -929.280
  N      158.945    -274.783    -930.042
  C      159.182    -275.546    -928.949
  N      159.149    -276.893    -928.844
  C      158.855    -277.462    -930.032
  C      158.608    -276.811    -931.235
  C      158.638    -275.402    -931.210
  N      158.345    -274.631    -932.311
  N      158.328    -277.729    -932.233
  C      158.368    -278.901    -931.633
  N      158.658    -278.790    -930.301
  O      160.504    -285.708    -931.451
  O      158.021    -285.448    -932.039
  H      155.752    -279.298    -927.602
  H      160.192    -286.633    -931.506
  H      159.422    -275.005    -928.041
  H      158.145    -279.856    -932.104
  H      159.132    -279.533    -928.422
  H      156.380    -279.860    -929.751
  H      156.040    -281.902    -928.742
  H      158.900    -282.416    -928.195
  H      157.283    -283.973    -929.396
  H      158.277    -273.633    -932.169
  H      158.011    -275.079    -933.149
  H      157.471    -282.960    -930.844
  P      155.654    -281.724    -926.202
  C      155.622    -279.785    -924.458
  O      155.825    -281.181    -924.699
  O      155.675    -283.320    -926.012
  O      154.438    -281.260    -926.932
  H      154.758    -283.663    -925.947
  H      155.770    -279.577    -923.419
  H      154.625    -279.516    -924.737
  H      156.320    -279.218    -925.038

 6  7  8  9  10  11  12  13  14  15  25  28  32  33  34  35 0
 6-311+G(2d,p)
 ****
 36  39  40 0
 6-311+G(2d,p)
 ****
 1  2  3  4  5  16  17  18  19  20  21  22  23  24 0
 3-21G
 ****
 26  27  29  30  31  37  38  41  42  43  44  45  46  47  48 0
 3-21G
 ****


