%nproc=1
%NoSave
%Mem=1900MB
#P OB98/GEN NMR

erre ene a

0 1
  C      213.979     -44.325     233.213
  O      213.106     -44.346     232.103
  H      214.999     -44.176     232.854
  H      213.932     -45.280     233.745
  H      213.725     -43.508     233.895
  P      211.525     -44.371     232.361
  C      210.048     -43.878     234.420
  O      211.274     -43.617     233.752
  C      210.003     -43.152     235.771
  O      210.890     -43.845     236.701
  C      210.467     -41.682     235.715
  O      209.750     -40.980     236.743
  C      211.936     -41.835     236.071
  O      212.555     -40.604     236.360
  C      211.815     -42.860     237.208
  N      213.064     -43.489     237.619
  C      213.806     -42.867     238.619
  O      213.477     -41.824     239.181
  N      214.978     -43.490     238.965
  C      215.459     -44.651     238.437
  O      216.501     -45.177     238.810
  C      214.635     -45.257     237.381
  C      213.493     -44.666     237.026
  O      210.868     -45.705     232.236
  O      210.953     -43.331     231.285
  H      210.570     -43.818     230.530
  H      213.509     -40.760     236.531
  H      215.524     -43.054     239.696
  H      214.993     -46.175     236.929
  H      212.857     -45.092     236.256
  H      211.346     -42.393     238.081
  H      212.486     -42.255     235.223
  H      210.281     -41.208     234.750
  H      208.987     -43.230     236.180
  H      209.969     -44.958     234.581
  H      209.218     -43.549     233.788
  P      208.604     -39.902     236.439
  C      206.540     -40.849     235.187
  O      207.187     -40.668     236.443
  O      208.843     -39.088     235.209
  O      208.539     -38.970     237.737
  H      208.196     -38.090     237.498
  H      205.616     -41.368     235.333
  H      207.171     -41.421     234.540
  H      206.347     -39.894     234.744

 6  7  8  9  10  11  12  13  14  15  16  27  31  32  33  34  35 0
 6-311+G(2d,p)
 ****
 36  37 0
 6-311+G(2d,p)
 ****
 1  2  3  4  5  17  18  19  20  21  22  23  24  25 0
 3-21G
 ****
 26  28  29  30  38  39  40  41  42  43  44  45 0
 3-21G
 ****


