%nproc=1
%NoSave
%Mem=1900MB
#P OB98/GEN NMR

erre ene a

0 1
  C       74.272      88.151     -84.564
  O       75.404      87.832     -83.785
  H       74.055      87.308     -85.225
  H       74.483      89.032     -85.176
  H       73.396      88.340     -83.938
  P       75.680      88.669     -82.450
  C       77.302      90.408     -83.451
  O       77.150      89.305     -82.567
  C       77.905      91.624     -82.747
  O       78.001      92.735     -83.665
  C       77.039      92.110     -81.584
  O       77.240      91.436     -80.356
  C       77.455      93.575     -81.478
  O       78.633      93.716     -80.667
  C       77.756      93.948     -82.931
  N       75.239      98.380     -83.267
  C       76.261      98.024     -82.409
  N       76.615      98.946     -81.487
  N       76.860      96.863     -82.446
  C       76.336      96.009     -83.355
  C       75.316      96.244     -84.250
  C       74.694      97.553     -84.238
  O       73.781      97.916     -84.971
  N       75.059      95.137     -85.023
  C       75.870      94.215     -84.545
  N       76.683      94.704     -83.550
  O       75.882      87.537     -81.332
  O       74.597      89.626     -82.058
  H       78.933      94.641     -80.720
  H       75.648      87.891     -80.455
  H       74.833      99.297     -83.212
  H       75.927      93.191     -84.900
  H       78.665      94.557     -83.009
  H       76.675      94.183     -81.011
  H       76.106      99.804     -81.345
  H       75.980      92.073     -81.856
  H       77.163      98.631     -80.684
  H       78.924      91.384     -82.421
  H       76.306      90.649     -83.826
  H       77.913      90.122     -84.312
  P       75.995      91.128     -79.398
  C       76.140      93.419     -78.173
  O       76.192      92.013     -78.077
  O       76.288      89.635     -78.905
  O       74.659      91.246     -80.046
  H       75.794      88.996     -79.452
  H       76.290      93.848     -77.205
  H       75.184      93.716     -78.550
  H       76.907      93.760     -78.837

 6  7  8  9  10  11  12  13  14  15  26  29  33  34 0
 6-311+G(2d,p)
 ****
 36  38  39  40  41 0
 6-311+G(2d,p)
 ****
 1  2  3  4  5  16  17  18  19  20  21  22  23  24  25 0
 3-21G
 ****
 27  28  30  31  32  35  37  42  43  44  45  46  47 0
 3-21G
 ****
 48  49 0
 3-21G
 ****


