%nproc=1
%NoSave
%Mem=1900MB
#P OB98/GEN NMR

erre ene a

0 1
  C      -13.327      12.237     -64.393
  O      -12.247      12.422     -65.294
  P      -10.731      12.469     -64.772
  C       -9.278      14.237     -63.601
  O      -10.538      13.953     -64.196
  C       -8.747      15.574     -64.111
  O       -8.330      15.406     -65.486
  C       -9.751      16.726     -64.134
  O       -9.891      17.413     -62.899
  C       -9.095      17.651     -65.151
  O       -8.021      18.377     -64.527
  C       -8.540      16.662     -66.178
  N      -10.800      18.870     -70.202
  C       -9.918      19.338     -69.290
  N       -9.377      18.692     -68.236
  C       -9.800      17.419     -68.195
  C      -10.691      16.799     -69.055
  C      -11.203      17.583     -70.102
  N      -12.084      17.097     -71.043
  N      -10.897      15.485     -68.680
  C      -10.133      15.317     -67.622
  N       -9.444      16.452     -67.295
  O       -9.720      12.022     -65.768
  O      -10.742      11.570     -63.450
  H       -7.422      17.716     -64.132
  H       -9.829      11.322     -63.209
  H       -9.608      20.372     -69.422
  H      -10.049      14.397     -67.061
  H       -7.571      16.975     -66.584
  H       -9.787      18.394     -65.558
  H      -10.724      16.399     -64.520
  H       -7.862      15.841     -63.521
  H       -8.578      13.442     -63.882
  H      -12.295      17.690     -71.830
  H      -12.255      16.101     -71.065
  H       -9.376      14.240     -62.513
  P      -11.360      17.949     -62.522
  C      -13.045      19.509     -63.776
  O      -11.723      19.037     -63.642
  O      -11.511      18.404     -61.113
  O      -12.297      16.706     -62.897
  H      -12.353      16.500     -63.844
  H      -13.049      20.350     -64.475
  H      -13.437      19.853     -62.816
  H      -13.688      18.719     -64.175
  H      -14.249      12.235     -64.937
  H      -13.336      13.033     -63.678
  H      -13.211      11.303     -63.884

 3  4  5  6  7  8  9  10  11  12  22  25  29  30  31  32 0
 6-311+G(2d,p)
 ****
 33  36  37 0
 6-311+G(2d,p)
 ****
 1  2  13  14  15  16  17  18  19  20  21  23  24  26 0
 3-21G
 ****
 27  28  34  35  38  39  40  41  42  43  44  45  46  47  48 0
 3-21G
 ****


