%nproc=1
%NoSave
%Mem=1900MB
#P OB98/GEN NMR

erre ene a

0 1
  C      -67.595     287.960     -45.450
  O      -68.403     286.798     -45.655
  P      -67.798     285.314     -45.554
  C      -69.658     284.433     -44.018
  O      -68.961     284.246     -45.246
  C      -70.983     283.662     -43.955
  O      -72.056     284.414     -44.585
  C      -70.962     282.281     -44.621
  O      -71.881     281.470     -43.879
  C      -71.514     282.587     -46.003
  O      -71.995     281.434     -46.688
  C      -72.585     283.610     -45.658
  N      -75.683     284.026     -49.714
  C      -75.692     283.178     -48.667
  N      -74.859     283.151     -47.605
  C      -73.968     284.156     -47.667
  C      -73.850     285.106     -48.669
  C      -74.755     285.010     -49.740
  N      -74.723     285.844     -50.837
  N      -72.794     285.963     -48.409
  C      -72.283     285.532     -47.275
  N      -72.963     284.441     -46.783
  O      -66.611     285.197     -44.648
  O      -67.365     284.962     -47.059
  H      -72.543     280.920     -46.066
  H      -66.473     284.565     -47.052
  H      -76.465     282.414     -48.684
  H      -71.418     285.944     -46.774
  H      -73.495     283.116     -45.283
  H      -70.716     283.029     -46.617
  H      -69.968     281.825     -44.646
  H      -71.254     283.569     -42.891
  H      -69.854     285.504     -43.888
  H      -75.361     285.638     -51.600
  H      -73.962     286.496     -50.935
  H      -69.007     284.116     -43.190
  P      -71.475     280.010     -43.344
  C      -72.227     280.389     -40.923
  O      -72.466     279.680     -42.128
  O      -70.024     279.834     -43.037
  O      -71.959     279.011     -44.496
  H      -71.496     278.158     -44.401
  H      -71.361     279.964     -40.412
  H      -73.105     280.302     -40.281
  H      -72.043     281.453     -41.122
  H      -68.197     288.837     -45.564
  H      -66.803     287.975     -46.169
  H      -67.181     287.937     -44.464

 3  4  5  6  7  8  9  10  11  12  22  25  29  30  31  32 0
 6-311+G(2d,p)
 ****
 33  36  37 0
 6-311+G(2d,p)
 ****
 1  2  13  14  15  16  17  18  19  20  21  23  24  26 0
 3-21G
 ****
 27  28  34  35  38  39  40  41  42  43  44  45  46  47  48 0
 3-21G
 ****


