%nproc=1
%NoSave
%Mem=1900MB
#P OB98/GEN NMR

erre ene a

0 1
  C      147.038    -684.907    -115.086
  O      147.334    -684.357    -116.355
  H      145.996    -685.226    -115.082
  H      147.172    -684.152    -114.307
  H      147.674    -685.771    -114.880
  P      148.844    -683.917    -116.677
  C      149.501    -686.185    -117.715
  O      149.726    -685.259    -116.657
  C      150.659    -686.124    -118.707
  O      150.795    -684.779    -119.232
  C      152.012    -686.479    -118.110
  O      152.133    -687.876    -117.926
  C      152.951    -685.882    -119.154
  O      153.055    -686.740    -120.298
  C      152.199    -684.582    -119.530
  N      152.720    -683.404    -118.823
  C      154.039    -683.055    -119.109
  O      154.746    -683.679    -119.889
  N      154.529    -681.982    -118.408
  C      153.879    -681.298    -117.422
  O      154.431    -680.495    -116.679
  C      152.473    -681.666    -117.221
  C      151.967    -682.688    -117.910
  O      149.382    -682.797    -115.856
  O      148.803    -683.542    -118.235
  H      148.766    -682.574    -118.327
  H      153.169    -687.653    -119.955
  H      155.494    -681.752    -118.571
  H      151.901    -681.104    -116.491
  H      150.936    -682.995    -117.753
  H      152.274    -684.389    -120.601
  H      153.958    -685.731    -118.771
  H      152.158    -685.939    -117.158
  H      150.421    -686.787    -119.551
  H      148.570    -685.921    -118.215
  H      149.407    -687.192    -117.298
  P      152.898    -688.485    -116.657
  C      151.058    -689.584    -115.247
  O      151.897    -688.451    -115.409
  O      154.244    -687.899    -116.392
  O      153.010    -690.049    -116.981
  H      153.947    -690.324    -116.900
  H      150.437    -689.448    -114.386
  H      151.661    -690.459    -115.118
  H      150.443    -689.700    -116.115

 6  7  8  9  10  11  12  13  14  15  16  27  31  32  33  34  35 0
 6-311+G(2d,p)
 ****
 36  37 0
 6-311+G(2d,p)
 ****
 1  2  3  4  5  17  18  19  20  21  22  23  24  25 0
 3-21G
 ****
 26  28  29  30  38  39  40  41  42  43  44  45 0
 3-21G
 ****


