%nproc=1
%NoSave
%Mem=1900MB
#P OB98/GEN NMR

erre ene a

0 1
  C      162.605     180.501    -513.347
  O      162.023     181.783    -513.459
  H      163.655     180.538    -513.655
  H      162.554     180.184    -512.301
  H      162.060     179.776    -513.961
  P      161.835     182.368    -514.940
  C      163.098     184.505    -514.159
  O      162.994     183.467    -515.128
  C      164.355     185.340    -514.403
  O      165.513     184.454    -514.401
  C      164.346     186.090    -515.747
  O      164.939     187.379    -515.559
  C      165.232     185.230    -516.632
  O      165.818     185.979    -517.695
  C      166.236     184.689    -515.623
  N      169.438     182.682    -519.075
  C      169.091     183.956    -518.797
  N      168.236     184.409    -517.850
  C      167.745     183.382    -517.132
  C      167.999     182.032    -517.298
  C      168.884     181.687    -518.336
  N      169.205     180.387    -518.659
  N      167.284     181.280    -516.386
  C      166.605     182.173    -515.673
  N      166.853     183.454    -516.090
  O      160.499     183.244    -514.803
  O      161.727     181.352    -516.032
  H      166.407     185.387    -518.206
  H      159.720     182.658    -514.839
  H      169.570     184.724    -519.413
  H      165.928     181.941    -514.862
  H      167.054     185.395    -515.420
  H      164.639     184.417    -517.069
  H      163.334     186.206    -516.152
  H      164.488     186.032    -513.558
  H      163.137     184.053    -513.162
  H      169.802     180.226    -519.453
  H      168.756     179.626    -518.159
  H      162.207     185.146    -514.223
  P      164.090     188.450    -514.719
  C      164.353     190.337    -516.489
  O      163.454     189.516    -515.749
  O      165.212     189.288    -513.943
  O      163.120     187.837    -513.769
  H      164.984     189.359    -512.997
  H      163.796     190.991    -517.127
  H      164.993     189.719    -517.083
  H      164.945     190.918    -515.813

 6  7  8  9  10  11  12  13  14  15  25  28  32  33  34  35 0
 6-311+G(2d,p)
 ****
 36  39  40 0
 6-311+G(2d,p)
 ****
 1  2  3  4  5  16  17  18  19  20  21  22  23  24 0
 3-21G
 ****
 26  27  29  30  31  37  38  41  42  43  44  45  46  47 0
 3-21G
 ****
 48 0
 3-21G
 ****


