%nproc=1
%NoSave
%Mem=1900MB
#P OB98/GEN NMR

erre ene a

0 1
  C     -114.947    -890.980     591.186
  O     -114.889    -890.930     592.613
  P     -116.260    -891.180     593.418
  C     -115.506    -893.320     594.704
  O     -116.363    -892.750     593.721
  C     -115.566    -894.850     594.658
  O     -115.089    -895.380     593.398
  C     -114.709    -895.520     595.716
  O     -115.321    -895.430     596.999
  C     -114.631    -896.940     595.161
  O     -115.849    -897.670     595.461
  C     -114.548    -896.690     593.646
  N     -111.379    -899.040     590.370
  C     -112.710    -899.230     590.643
  N     -113.459    -898.560     591.543
  C     -112.757    -897.610     592.159
  C     -111.409    -897.310     591.991
  C     -110.720    -898.070     591.039
  N     -109.369    -897.910     590.767
  N     -111.027    -896.270     592.825
  C     -112.100    -895.960     593.508
  N     -113.173    -896.730     593.151
  O     -117.384    -890.920     592.305
  O     -116.441    -890.280     594.610
  H     -115.846    -897.830     596.436
  H     -117.858    -890.100     592.483
  H     -113.201    -900.000     590.063
  H     -112.158    -895.210     594.285
  H     -115.136    -897.410     593.070
  H     -113.796    -897.500     595.586
  H     -113.720    -895.070     595.750
  H     -116.628    -895.140     594.785
  H     -115.787    -892.960     595.699
  H     -108.926    -898.550     590.120
  H     -108.835    -897.250     591.329
  H     -114.477    -892.970     594.518
  P     -114.769    -894.320     598.028
  C     -116.602    -892.710     597.169
  O     -115.202    -892.920     597.341
  O     -113.188    -894.370     597.726
  O     -115.179    -894.520     599.437
  H     -112.995    -894.390     596.770
  H     -116.752    -891.710     596.742
  H     -117.100    -892.730     598.141
  H     -117.020    -893.470     596.491
  H     -113.973    -890.798     590.783
  H     -115.626    -890.233     590.830
  H     -115.286    -891.947     590.876

 3  4  5  6  7  8  9  10  11  12  22  25  29  30  31  32 0
 6-311+G(2d,p)
 ****
 33  36  37 0
 6-311+G(2d,p)
 ****
 1  2  13  14  15  16  17  18  19  20  21  23  24  26 0
 3-21G
 ****
 27  28  34  35  38  39  40  41  42  43  44  45  46  47  48 0
 3-21G
 ****


