%nproc=1
%NoSave
%Mem=1900MB
#P OB98/GEN NMR

erre ene a

0 1
  C      363.743     -86.524     202.972
  O      363.244     -87.362     201.920
  P      363.964     -88.723     201.454
  C      364.285     -88.173     198.945
  O      363.608     -88.972     199.909
  C      363.350     -87.803     197.790
  O      362.371     -86.834     198.231
  C      364.019     -87.144     196.595
  O      364.773     -88.060     195.821
  C      362.814     -86.549     195.867
  O      362.181     -87.519     195.021
  C      361.876     -86.181     197.036
  N      361.753     -84.746     197.238
  C      360.492     -84.272     197.625
  O      359.535     -85.044     197.704
  N      360.352     -82.936     197.900
  C      361.348     -82.128     197.701
  N      361.154     -80.815     198.008
  C      362.648     -82.565     197.163
  C      362.780     -83.875     196.958
  O      363.671     -89.894     202.335
  O      365.530     -88.390     201.440
  H      366.038     -89.210     201.581
  H      362.185     -88.364     195.512
  H      363.439     -81.852     196.971
  H      363.711     -84.286     196.577
  H      360.879     -86.609     196.866
  H      363.093     -85.697     195.236
  H      364.669     -86.328     196.948
  H      362.821     -88.715     197.474
  H      360.251     -80.552     198.386
  H      365.127     -88.754     198.546
  H      361.870     -80.108     197.912
  H      364.681     -87.278     199.430
  P      365.960     -87.452     194.931
  C      365.098     -88.458     192.693
  O      366.144     -88.398     193.649
  O      367.273     -87.736     195.805
  O      365.822     -85.996     194.619
  H      367.881     -86.977     195.739
  H      365.531     -88.707     191.721
  H      364.571     -87.501     192.613
  H      364.395     -89.241     192.981
  H      363.094     -85.682     203.095
  H      364.726     -86.183     202.721
  H      363.781     -87.082     203.884

 3  4  5  6  7  8  9  10  11  12  13  24  27  28  29  30  32 0
 6-311+G(2d,p)
 ****
 34  35 0
 6-311+G(2d,p)
 ****
 1  2  14  15  16  17  18  19  20  21  22  23  25  26 0
 3-21G
 ****
 31  33  36  37  38  39  40  41  42  43  44  45  46 0
 3-21G
 ****


