%nproc=1
%NoSave
%Mem=1900MB
#P OB98/GEN NMR

erre ene a

0 1
  C       68.392    -162.130    -225.717
  O       67.670    -161.967    -224.508
  P       68.353    -161.132    -223.322
  C       68.716    -163.278    -221.904
  O       69.306    -162.131    -222.499
  C       69.040    -163.342    -220.409
  O       68.361    -164.481    -219.814
  C       70.537    -163.498    -220.113
  O       70.853    -162.803    -218.894
  C       70.689    -164.981    -219.841
  O       71.843    -165.254    -219.048
  C       69.360    -165.286    -219.152
  N       70.714    -169.950    -217.752
  C       71.153    -168.731    -217.277
  N       72.150    -168.762    -216.366
  N       70.658    -167.585    -217.656
  C       69.667    -167.707    -218.578
  C       69.134    -168.860    -219.113
  C       69.707    -170.124    -218.692
  O       69.382    -171.236    -219.094
  N       68.123    -168.586    -219.993
  C       68.064    -167.268    -220.028
  N       69.006    -166.688    -219.215
  O       67.128    -160.871    -222.320
  O       68.983    -159.848    -223.750
  H       72.003    -166.216    -219.102
  H       66.841    -159.940    -222.392
  H       71.137    -170.809    -217.437
  H       67.381    -166.686    -220.635
  H       69.379    -164.990    -218.095
  H       70.789    -165.525    -220.788
  H       72.625    -169.609    -216.085
  H       71.197    -163.145    -220.913
  H       72.520    -167.879    -216.034
  H       68.640    -162.445    -219.924
  H       69.102    -164.172    -222.392
  H       67.628    -163.248    -222.052
  P       72.151    -161.859    -218.942
  C       73.572    -163.749    -217.855
  O       73.411    -162.846    -218.929
  O       72.175    -161.193    -217.486
  O       72.127    -160.839    -220.033
  H       72.641    -160.336    -217.509
  H       73.514    -164.771    -218.244
  H       72.812    -163.617    -217.082
  H       74.559    -163.598    -217.407
  H       67.809    -162.705    -226.406
  H       69.312    -162.638    -225.517
  H       68.600    -161.170    -226.141

 3  4  5  6  7  8  9  10  11  12  23  26  30  31 0
 6-311+G(2d,p)
 ****
 33  35  36  37  38 0
 6-311+G(2d,p)
 ****
 1  2  13  14  15  16  17  18  19  20  21  22  24  25 0
 3-21G
 ****
 27  28  29  32  34  39  40  41  42  43  44  45  46  47  48  49 0
 3-21G
 ****


