%nproc=1
%NoSave
%Mem=1900MB
#P OB98/GEN NMR

erre ene a

0 1
  C      406.221    -147.574    -818.988
  O      405.262    -147.447    -817.958
  H      406.162    -146.692    -819.626
  H      406.000    -148.460    -819.587
  H      407.231    -147.648    -818.580
  P      405.368    -148.407    -816.685
  C      403.557    -150.170    -817.243
  O      404.951    -149.882    -817.165
  C      403.313    -151.673    -817.405
  O      403.532    -152.338    -816.136
  C      401.859    -151.934    -817.803
  O      401.716    -153.129    -818.570
  C      401.165    -152.124    -816.462
  O      399.943    -152.849    -816.559
  C      402.259    -152.843    -815.671
  N      401.612    -155.054    -811.118
  C      401.533    -155.610    -812.380
  N      401.220    -156.921    -812.439
  N      401.728    -154.929    -813.488
  C      401.958    -153.612    -813.283
  C      402.034    -152.942    -812.078
  C      401.859    -153.702    -810.862
  O      401.906    -153.257    -809.722
  N      402.276    -151.598    -812.273
  C      402.327    -151.460    -813.577
  N      402.162    -152.660    -814.235
  O      404.119    -147.976    -815.771
  O      406.652    -148.339    -815.914
  H      399.552    -152.879    -815.668
  H      404.284    -148.191    -814.843
  H      401.466    -155.616    -810.306
  H      402.492    -150.520    -814.102
  H      402.229    -153.920    -815.866
  H      400.926    -151.128    -816.060
  H      400.890    -157.433    -811.632
  H      401.433    -151.105    -818.365
  H      400.867    -157.273    -813.335
  H      404.033    -152.105    -818.112
  H      403.162    -149.628    -818.115
  H      403.043    -149.787    -816.358
  P      401.760    -152.992    -820.173
  C      399.250    -152.245    -820.463
  O      400.634    -151.925    -820.589
  O      401.184    -154.393    -820.679
  O      403.116    -152.702    -820.714
  H      401.902    -154.947    -821.028
  H      398.661    -151.413    -820.788
  H      399.026    -152.463    -819.440
  H      399.025    -153.099    -821.067

 6  7  8  9  10  11  12  13  14  15  26  29  33  34 0
 6-311+G(2d,p)
 ****
 36  38  39  40  41 0
 6-311+G(2d,p)
 ****
 1  2  3  4  5  16  17  18  19  20  21  22  23  24  25 0
 3-21G
 ****
 27  28  30  31  32  35  37  42  43  44  45  46  47 0
 3-21G
 ****
 48  49 0
 3-21G
 ****


