%nproc=1
%NoSave
%Mem=1900MB
#P OB98/GEN NMR

erre ene a

0 1
  C      191.991     240.121     456.624
  O      190.880     239.478     456.034
  H      192.876     239.496     456.472
  H      191.830     240.240     457.698
  H      192.168     241.097     456.164
  P      189.479     240.253     455.980
  C      188.598     238.570     457.728
  O      188.357     239.227     456.488
  C      187.440     237.623     458.046
  O      186.231     238.378     458.286
  C      187.106     236.658     456.916
  O      188.043     235.603     456.851
  C      185.700     236.238     457.305
  O      185.730     235.220     458.320
  C      185.119     237.557     457.864
  N      184.277     238.263     456.897
  C      182.941     237.879     456.841
  O      182.468     236.979     457.535
  N      182.164     238.552     455.937
  C      182.609     239.470     455.027
  O      181.887     239.977     454.175
  C      184.033     239.812     455.111
  C      184.790     239.205     456.029
  O      189.168     240.941     454.692
  O      189.579     241.297     457.191
  H      186.232     234.472     457.943
  H      189.740     242.192     456.835
  H      181.196     238.282     455.872
  H      184.419     240.545     454.416
  H      185.846     239.445     456.100
  H      184.517     237.359     458.760
  H      185.139     235.832     456.463
  H      187.062     237.195     455.959
  H      187.685     237.079     458.967
  H      188.678     239.325     458.514
  H      189.541     238.019     457.662
  P      189.247     235.669     455.797
  C      188.183     233.461     455.007
  O      189.386     234.219     455.123
  O      190.518     236.251     456.311
  O      188.657     236.563     454.606
  H      189.209     237.360     454.499
  H      188.398     232.519     454.546
  H      187.479     233.999     454.407
  H      187.770     233.296     455.980

 6  7  8  9  10  11  12  13  14  15  16  26  31  32  33  34  35 0
 6-311+G(2d,p)
 ****
 36  37 0
 6-311+G(2d,p)
 ****
 1  2  3  4  5  17  18  19  20  21  22  23  24  25 0
 3-21G
 ****
 27  28  29  30  38  39  40  41  42  43  44  45 0
 3-21G
 ****


