%nproc=1
%NoSave
%Mem=1900MB
#P OB98/GEN NMR

erre ene a

0 1
  C       79.547     137.089    -344.764
  O       79.122     138.160    -343.947
  H       80.275     137.469    -345.487
  H       78.698     136.668    -345.306
  H       80.025     136.316    -344.157
  P       78.059     137.820    -342.788
  C       76.241     138.967    -344.254
  O       76.629     137.810    -343.523
  C       74.733     139.201    -344.122
  O       74.027     138.115    -344.769
  C       74.257     139.269    -342.666
  O       73.316     140.338    -342.530
  C       73.585     137.928    -342.434
  O       72.590     137.990    -341.413
  C       73.067     137.580    -343.837
  N       72.904     136.138    -344.012
  C       71.603     135.670    -344.234
  O       70.657     136.462    -344.259
  N       71.395     134.320    -344.366
  C       72.389     133.502    -344.228
  N       72.114     132.174    -344.349
  C       73.770     133.942    -343.945
  C       73.956     135.259    -343.858
  O       78.033     139.165    -341.922
  O       78.360     136.591    -341.993
  H       72.112     137.134    -341.403
  H       77.583     139.027    -341.054
  H       74.564     133.219    -343.822
  H       74.937     135.674    -343.650
  H       72.103     138.068    -344.026
  H       74.335     137.194    -342.125
  H       75.069     139.422    -341.959
  H       74.474     140.116    -344.667
  H       71.154     131.906    -344.532
  H       76.500     138.826    -345.307
  H       72.805     131.446    -344.232
  H       76.779     139.837    -343.862
  P       73.894     141.708    -341.922
  C       72.698     141.582    -339.623
  O       73.935     141.548    -340.322
  O       72.711     142.756    -342.173
  O       75.183     142.142    -342.539
  H       72.896     143.296    -342.963
  H       72.877     141.465    -338.575
  H       72.071     140.787    -339.969
  H       72.214     142.520    -339.799

 6  7  8  9  10  11  12  13  14  15  16  26  30  31  32  33  35 0
 6-311+G(2d,p)
 ****
 37  38 0
 6-311+G(2d,p)
 ****
 1  2  3  4  5  17  18  19  20  21  22  23  24  25 0
 3-21G
 ****
 27  28  29  34  36  39  40  41  42  43  44  45  46 0
 3-21G
 ****


