%nproc=1
%NoSave
%Mem=1900MB
#P OB98/GEN NMR

erre ene a

0 1
  C     -266.222     -19.229      57.316
  O     -265.116     -19.206      58.196
  H     -265.905     -18.858      56.338
  H     -267.018     -18.581      57.695
  H     -266.599     -20.249      57.203
  P     -265.336     -19.817      59.662
  C     -265.054     -22.402      59.476
  O     -264.438     -21.148      59.733
  C     -263.980     -23.473      59.262
  O     -263.096     -23.030      58.193
  C     -263.117     -23.724      60.502
  O     -262.793     -25.117      60.576
  C     -261.856     -22.917      60.219
  O     -260.715     -23.375      60.928
  C     -261.743     -23.084      58.700
  N     -260.922     -22.046      58.081
  C     -259.541     -22.176      58.182
  O     -258.961     -23.140      58.687
  N     -258.805     -21.138      57.669
  C     -259.307     -19.996      57.100
  O     -258.597     -19.091      56.682
  C     -260.775     -19.915      57.034
  C     -261.501     -20.922      57.520
  O     -266.831     -20.391      59.601
  O     -265.129     -18.873      60.798
  H     -267.470     -19.710      59.886
  H     -260.371     -24.168      60.466
  H     -257.803     -21.217      57.730
  H     -261.206     -19.019      56.600
  H     -262.586     -20.883      57.495
  H     -261.338     -24.074      58.454
  H     -262.019     -21.867      60.482
  H     -263.598     -23.407      61.428
  H     -264.463     -24.400      58.922
  H     -265.669     -22.321      58.574
  H     -265.694     -22.673      60.324
  P     -263.615     -26.011      61.626
  C     -265.867     -26.480      60.379
  O     -264.580     -26.949      60.743
  O     -264.593     -24.927      62.271
  O     -262.736     -26.730      62.597
  H     -264.911     -24.261      61.630
  H     -266.367     -27.226      59.798
  H     -265.770     -25.584      59.802
  H     -266.435     -26.275      61.262

 6  7  8  9  10  11  12  13  14  15  16  27  31  32  33  34  35 0
 6-311+G(2d,p)
 ****
 36  37 0
 6-311+G(2d,p)
 ****
 1  2  3  4  5  17  18  19  20  21  22  23  24  25 0
 3-21G
 ****
 26  28  29  30  38  39  40  41  42  43  44  45 0
 3-21G
 ****


