%nproc=1
%NoSave
%Mem=1900MB
#P OB98/GEN NMR

erre ene a

0 1
  C     -332.252    -201.521    -309.064
  O     -331.781    -202.796    -308.667
  H     -331.983    -201.362    -310.115
  H     -331.797    -200.732    -308.462
  H     -333.338    -201.478    -308.976
  P     -331.828    -203.165    -307.105
  C     -329.428    -204.119    -307.076
  O     -330.299    -203.097    -306.602
  C     -328.031    -203.976    -306.462
  O     -327.384    -202.786    -306.967
  C     -328.040    -203.817    -304.949
  O     -328.424    -204.982    -304.249
  C     -326.673    -203.195    -304.675
  O     -325.627    -204.157    -304.544
  C     -326.451    -202.351    -305.957
  N     -326.562    -200.922    -305.693
  C     -325.486    -200.348    -305.025
  O     -324.501    -200.979    -304.632
  N     -325.600    -199.003    -304.757
  C     -326.678    -198.223    -305.051
  O     -326.731    -197.033    -304.749
  C     -327.795    -198.891    -305.732
  C     -327.686    -200.192    -306.024
  O     -332.524    -204.447    -306.756
  O     -332.488    -201.871    -306.428
  H     -324.886    -203.716    -304.086
  H     -332.812    -202.073    -305.516
  H     -324.821    -198.566    -304.278
  H     -328.666    -198.297    -305.985
  H     -328.499    -200.708    -306.525
  H     -325.447    -202.547    -306.362
  H     -326.687    -202.597    -303.753
  H     -328.780    -203.056    -304.692
  H     -327.426    -204.847    -306.766
  H     -329.352    -204.017    -308.162
  H     -329.847    -205.104    -306.840
  P     -328.619    -205.034    -302.662
  C     -327.315    -207.247    -302.275
  O     -327.383    -205.845    -302.027
  O     -329.995    -205.312    -302.156
  O     -328.264    -203.504    -302.252
  H     -328.823    -203.269    -301.492
  H     -326.448    -207.652    -301.796
  H     -327.253    -207.420    -303.329
  H     -328.192    -207.721    -301.886

 6  7  8  9  10  11  12  13  14  15  16  26  31  32  33  34  35 0
 6-311+G(2d,p)
 ****
 36  37 0
 6-311+G(2d,p)
 ****
 1  2  3  4  5  17  18  19  20  21  22  23  24  25 0
 3-21G
 ****
 27  28  29  30  38  39  40  41  42  43  44  45 0
 3-21G
 ****


