%nproc=1
%NoSave
%Mem=1900MB
#P OB98/GEN NMR

erre ene a

0 1
  C       66.965     -94.056      17.171
  O       67.790     -94.566      18.220
  P       67.211     -94.460      19.713
  C       65.874     -96.630      20.185
  O       67.107     -95.940      20.328
  C       65.956     -98.064      20.724
  O       66.826     -98.880      19.896
  C       66.486     -98.147      22.158
  O       65.828     -99.244      22.794
  C       67.947     -98.504      21.962
  O       68.498     -99.087      23.140
  C       67.850     -99.440      20.746
  N       69.118     -99.596      20.036
  C       70.118    -100.331      20.677
  O       69.940    -100.756      21.820
  N       71.310    -100.531      20.030
  C       71.507     -99.997      18.865
  N       72.712    -100.229      18.276
  C       70.502     -99.164      18.176
  C       69.343     -99.012      18.812
  O       65.685     -94.032      19.488
  O       67.935     -93.469      20.566
  H       67.924     -99.838      23.406
  H       65.467     -93.268      20.053
  H       70.718     -98.723      17.215
  H       68.544     -98.423      18.388
  H       67.514    -100.439      21.055
  H       68.527     -97.607      21.712
  H       66.328     -97.232      22.736
  H       64.953     -98.503      20.676
  H       73.373    -100.812      18.775
  H       65.587     -96.661      19.132
  H       72.972     -99.862      17.373
  H       65.089     -96.064      20.696
  P       64.924     -98.944      24.083
  C       62.866     -98.542      22.600
  O       63.431     -99.324      23.634
  O       64.861     -97.340      24.064
  O       65.381     -99.454      25.407
  H       64.388     -97.020      24.853
  H       61.908     -98.983      22.311
  H       63.525     -98.527      21.728
  H       62.689     -97.523      22.955
  H       67.461     -94.185      16.232
  H       66.780     -93.015      17.336
  H       66.035     -94.586      17.159

 3  4  5  6  7  8  9  10  11  12  13  21  23  27  28  29  30  32 0
 6-311+G(2d,p)
 ****
 34  35 0
 6-311+G(2d,p)
 ****
 1  2  14  15  16  17  18  19  20  22  24  25  26 0
 3-21G
 ****
 31  33  36  37  38  39  40  41  42  43  44  45  46 0
 3-21G
 ****


