%nproc=1
%NoSave
%Mem=1900MB
#P OB98/GEN NMR

erre ene a

0 1
  C       97.647     119.062    -407.899
  O       98.644     119.989    -407.460
  P      100.163     119.472    -407.475
  C      101.677     118.023    -405.938
  O      100.461     118.752    -406.072
  C      102.172     118.095    -404.488
  O      102.782     119.374    -404.199
  C      101.060     117.939    -403.458
  O      100.642     116.587    -403.359
  C      101.746     118.486    -402.211
  O      102.618     117.496    -401.637
  C      102.587     119.639    -402.786
  N      100.763     123.020    -399.396
  C      101.329     121.798    -399.243
  N      101.790     120.962    -400.198
  C      101.627     121.499    -401.421
  C      101.068     122.728    -401.733
  C      100.618     123.508    -400.652
  N      100.028     124.745    -400.811
  N      101.069     122.931    -403.098
  C      101.594     121.835    -403.604
  N      101.957     120.938    -402.629
  O      101.015     120.828    -407.394
  O      100.514     118.673    -408.688
  H      103.083     117.914    -400.886
  H      101.443     121.004    -408.252
  H      101.430     121.452    -398.219
  H      101.733     121.639    -404.660
  H      103.579     119.702    -402.322
  H      101.039     118.794    -401.432
  H      100.205     118.574    -403.727
  H      102.925     117.305    -404.344
  H      102.437     118.426    -406.608
  H       99.664     125.205    -399.991
  H       99.835     125.083    -401.743
  H      101.504     116.986    -406.244
  P       99.397     116.121    -404.257
  C       96.903     116.747    -404.272
  O       98.166     116.976    -403.669
  O       99.113     114.657    -403.681
  O       99.606     116.217    -405.732
  H       99.125     114.644    -402.704
  H       96.158     117.362    -403.756
  H       96.625     115.694    -404.179
  H       96.935     117.034    -405.326
  H       96.683     119.522    -407.843
  H       97.666     118.195    -407.272
  H       97.847     118.775    -408.910

 3  4  5  6  7  8  9  10  11  12  22  25  29  30  31  32 0
 6-311+G(2d,p)
 ****
 33  36  37 0
 6-311+G(2d,p)
 ****
 1  2  13  14  15  16  17  18  19  20  21  23  24  26 0
 3-21G
 ****
 27  28  34  35  38  39  40  41  42  43  44  45  46  47  48 0
 3-21G
 ****


