%nproc=1
%NoSave
%Mem=1900MB
#P OB98/GEN NMR

erre ene a

0 1
  C     -486.826      30.056    -517.240
  O     -486.331      29.511    -518.452
  P     -486.939      28.154    -519.059
  C     -485.611      25.936    -519.149
  O     -486.132      26.977    -518.331
  C     -484.197      26.288    -519.602
  O     -483.409      26.677    -518.457
  C     -483.442      25.144    -520.263
  O     -483.883      24.938    -521.592
  C     -482.004      25.624    -520.115
  O     -481.694      26.597    -521.127
  C     -482.033      26.306    -518.729
  N     -481.500      25.457    -517.668
  C     -480.122      25.226    -517.697
  O     -479.408      25.724    -518.564
  N     -479.566      24.453    -516.704
  C     -480.324      23.937    -515.784
  N     -479.710      23.240    -514.790
  C     -481.787      24.111    -515.752
  C     -482.302      24.879    -516.714
  O     -486.941      28.081    -520.549
  O     -488.391      28.035    -518.403
  H     -480.802      26.944    -520.921
  H     -489.096      28.493    -518.923
  H     -482.378      23.650    -514.973
  H     -483.366      25.071    -516.747
  H     -481.466      27.241    -518.755
  H     -481.264      24.821    -520.189
  H     -483.577      24.217    -519.691
  H     -484.257      27.151    -520.282
  H     -478.699      23.296    -514.753
  H     -486.256      25.836    -520.032
  H     -480.175      23.059    -513.906
  H     -485.626      24.995    -518.594
  P     -483.284      23.685    -522.390
  C     -481.817      24.487    -524.375
  O     -481.877      24.177    -522.989
  O     -484.244      23.561    -523.660
  O     -483.229      22.419    -521.597
  H     -484.892      22.846    -523.532
  H     -480.885      25.020    -524.567
  H     -482.659      25.120    -524.664
  H     -481.820      23.566    -524.958
  H     -486.293      30.955    -517.009
  H     -486.691      29.348    -516.449
  H     -487.867      30.277    -517.347

 3  4  5  6  7  8  9  10  11  12  13  23  27  28  29  30  32 0
 6-311+G(2d,p)
 ****
 34  35 0
 6-311+G(2d,p)
 ****
 1  2  14  15  16  17  18  19  20  21  22  24  25  26 0
 3-21G
 ****
 31  33  36  37  38  39  40  41  42  43  44  45  46 0
 3-21G
 ****


