%nproc=1
%NoSave
%Mem=1900MB
#P OB98/GEN NMR

erre ene a

0 1
  C       52.480    -194.712     -21.254
  O       52.168    -196.106     -21.181
  P       50.694    -196.559     -21.633
  C       49.745    -196.983     -19.233
  O       49.726    -196.188     -20.406
  C       48.792    -196.417     -18.176
  O       48.547    -197.421     -17.146
  C       49.300    -195.149     -17.478
  O       48.156    -194.311     -17.254
  C       49.833    -195.675     -16.158
  O       49.894    -194.662     -15.166
  C       48.830    -196.798     -15.876
  N       49.325    -197.767     -14.901
  C       49.030    -197.525     -13.566
  O       48.451    -196.509     -13.184
  N       49.464    -198.469     -12.675
  C       50.217    -199.567     -12.978
  O       50.579    -200.382     -12.139
  C       50.595    -199.710     -14.393
  C       50.140    -198.816     -15.273
  O       50.820    -198.149     -21.574
  O       50.295    -195.999     -22.957
  H       51.374    -198.468     -20.841
  H       50.121    -195.070     -14.306
  H       49.233    -198.327     -11.704
  H       51.240    -200.536     -14.661
  H       50.417    -198.881     -16.316
  H       47.887    -196.383     -15.501
  H       50.840    -196.084     -16.299
  H       50.045    -194.608     -18.067
  H       47.830    -196.212     -18.663
  H       50.758    -197.006     -18.818
  H       49.483    -198.013     -19.493
  P       47.662    -193.363     -18.457
  C       48.789    -191.214     -17.475
  O       48.685    -192.134     -18.538
  O       46.365    -192.706     -17.778
  O       47.351    -194.071     -19.734
  H       46.529    -192.383     -16.877
  H       49.688    -190.610     -17.619
  H       48.866    -191.728     -16.513
  H       47.918    -190.552     -17.470
  H       53.486    -194.554     -20.926
  H       51.810    -194.163     -20.626
  H       52.378    -194.376     -22.265

 3  4  5  6  7  8  9  10  11  12  13  24  28  29  30  31  32 0
 6-311+G(2d,p)
 ****
 33  34 0
 6-311+G(2d,p)
 ****
 1  2  14  15  16  17  18  19  20  21  22  23  25  26  27 0
 3-21G
 ****
 35  36  37  38  39  40  41  42  43  44  45 0
 3-21G
 ****


