%nproc=1
%NoSave
%Mem=1900MB
#P OB98/GEN NMR

erre ene a

0 1
  C     -106.975     -33.851     180.401
  O     -106.792     -32.946     181.490
  P     -107.621     -33.198     182.839
  C     -105.693     -33.832     184.433
  O     -106.838     -34.287     183.722
  C     -105.082     -34.975     185.264
  O     -104.251     -35.794     184.400
  C     -104.172     -34.526     186.414
  O     -104.762     -34.273     187.687
  C     -103.278     -35.751     186.585
  O     -103.945     -36.728     187.408
  C     -103.133     -36.294     185.164
  N      -98.048     -36.882     185.235
  C      -99.032     -37.417     185.992
  N     -100.361     -37.209     185.908
  C     -100.648     -36.356     184.912
  C      -99.753     -35.734     184.055
  C      -98.392     -36.021     184.246
  N      -97.390     -35.468     183.485
  N     -100.418     -34.918     183.163
  C     -101.693     -35.036     183.489
  N     -101.884     -35.902     184.529
  O     -109.086     -33.437     182.673
  O     -107.360     -31.846     183.663
  H     -104.190     -36.274     188.236
  H     -108.175     -31.604     184.144
  H      -98.707     -38.105     186.770
  H     -102.503     -34.510     183.001
  H     -103.177     -37.388     185.130
  H     -102.335     -35.516     187.083
  H     -103.565     -33.664     186.112
  H     -105.892     -35.607     185.656
  H     -105.977     -33.008     185.093
  H      -96.436     -35.694     183.715
  H      -97.622     -34.781     182.780
  H     -104.990     -33.427     183.703
  P     -104.226     -33.101     188.639
  C     -105.086     -31.023     187.305
  O     -103.999     -31.835     187.682
  O     -103.048     -33.460     189.481
  O     -105.534     -32.698     189.465
  H     -106.227     -32.267     188.934
  H     -104.702     -30.109     186.843
  H     -105.691     -30.749     188.175
  H     -105.708     -31.549     186.575
  H     -106.358     -33.551     179.580
  H     -108.001     -33.841     180.098
  H     -106.703     -34.839     180.709

 3  4  5  6  7  8  9  10  11  12  22  25  29  30  31  32 0
 6-311+G(2d,p)
 ****
 33  36  37 0
 6-311+G(2d,p)
 ****
 1  2  13  14  15  16  17  18  19  20  21  23  24  26 0
 3-21G
 ****
 27  28  34  35  38  39  40  41  42  43  44  45  46  47  48 0
 3-21G
 ****


