%nproc=1
%NoSave
%Mem=1900MB
#P OB98/GEN NMR

erre ene a

0 1
  C     -557.975    -398.346    -166.117
  O     -557.658    -398.173    -167.486
  H     -558.324    -399.370    -165.965
  H     -558.777    -397.659    -165.829
  H     -557.093    -398.179    -165.494
  P     -556.979    -396.802    -167.958
  C     -554.536    -397.620    -167.719
  O     -555.542    -396.726    -167.246
  C     -553.159    -397.114    -167.311
  O     -552.845    -395.894    -168.007
  C     -553.037    -396.789    -165.828
  O     -552.912    -397.962    -165.041
  C     -551.798    -395.895    -165.832
  O     -550.606    -396.681    -165.873
  C     -551.991    -395.110    -167.153
  N     -552.543    -393.771    -166.934
  C     -551.647    -392.792    -166.505
  O     -550.459    -393.019    -166.268
  N     -552.178    -391.542    -166.312
  C     -553.496    -391.209    -166.408
  O     -553.928    -390.087    -166.138
  C     -554.405    -392.287    -166.841
  C     -553.885    -393.496    -167.090
  O     -557.814    -395.577    -167.812
  O     -556.600    -397.074    -169.489
  H     -549.864    -396.055    -166.051
  H     -557.232    -396.599    -170.065
  H     -551.544    -390.829    -165.987
  H     -555.450    -392.053    -166.952
  H     -554.530    -394.302    -167.401
  H     -551.033    -395.000    -167.671
  H     -551.744    -395.270    -164.950
  H     -553.899    -396.194    -165.500
  H     -552.417    -397.872    -167.596
  H     -554.601    -397.681    -168.812
  H     -554.727    -398.620    -167.302
  P     -553.086    -397.888    -163.456
  C     -555.656    -397.866    -163.370
  O     -554.464    -397.121    -163.144
  O     -551.899    -397.377    -162.713
  O     -553.413    -399.395    -163.040
  H     -552.719    -399.712    -162.425
  H     -556.505    -397.261    -163.131
  H     -555.654    -398.739    -162.751
  H     -555.704    -398.159    -164.398

 6  7  8  9  10  11  12  13  14  15  16  26  31  32  33  34  35 0
 6-311+G(2d,p)
 ****
 36  37 0
 6-311+G(2d,p)
 ****
 1  2  3  4  5  17  18  19  20  21  22  23  24  25 0
 3-21G
 ****
 27  28  29  30  38  39  40  41  42  43  44  45 0
 3-21G
 ****


