%nproc=1
%NoSave
%Mem=1900MB
#P OB98/GEN NMR

erre ene a

0 1
  C        2.957       5.536    -125.604
  O        3.964       5.830    -124.660
  H        2.614       6.472    -126.052
  H        2.111       5.051    -125.112
  H        3.351       4.891    -126.393
  P        4.635       4.587    -123.893
  C        7.168       5.161    -123.735
  O        5.893       5.214    -123.110
  C        7.392       6.405    -124.599
  O        7.135       7.587    -123.804
  C        8.814       6.512    -125.150
  O        8.762       6.926    -126.516
  C        9.467       7.579    -124.290
  O       10.533       8.242    -124.967
  C        8.272       8.463    -123.917
  N        8.505       9.195    -122.673
  C        8.423      10.589    -122.738
  O        8.177      11.146    -123.809
  N        8.672      11.321    -121.605
  C        9.034      10.718    -120.517
  N        9.289      11.500    -119.434
  C        9.181       9.253    -120.415
  C        8.898       8.561    -121.517
  O        5.306       3.754    -125.081
  O        3.706       3.789    -123.040
  H       10.153       8.716    -125.739
  H        5.574       2.852    -124.782
  H        9.500       8.798    -119.490
  H        8.981       7.480    -121.536
  H        8.062       9.188    -124.716
  H        9.883       7.113    -123.388
  H        9.365       5.575    -125.088
  H        6.651       6.405    -125.406
  H        9.188      12.501    -119.544
  H        7.219       4.265    -124.362
  H        9.605      11.141    -118.545
  H        7.944       5.106    -122.965
  P        8.968       5.768    -127.609
  C        7.707       7.008    -129.505
  O        8.937       6.460    -129.058
  O        7.597       4.946    -127.546
  O       10.160       4.907    -127.350
  H        7.706       4.141    -127.007
  H        7.838       7.431    -130.479
  H        7.388       7.770    -128.825
  H        6.967       6.236    -129.548

 6  7  8  9  10  11  12  13  14  15  16  26  30  31  32  33  35 0
 6-311+G(2d,p)
 ****
 37  38 0
 6-311+G(2d,p)
 ****
 1  2  3  4  5  17  18  19  20  21  22  23  24  25 0
 3-21G
 ****
 27  28  29  34  36  39  40  41  42  43  44  45  46 0
 3-21G
 ****


