%nproc=1
%NoSave
%Mem=1900MB
#P OB98/GEN NMR

erre ene a

0 1
  C      223.984    -752.412     564.644
  O      223.944    -753.751     565.089
  H      224.236    -752.406     563.583
  H      224.754    -751.858     565.191
  H      223.011    -751.925     564.779
  P      223.439    -754.054     566.584
  C      222.201    -755.979     567.780
  O      222.633    -755.437     566.533
  C      220.848    -756.666     567.605
  O      219.852    -755.709     567.167
  C      220.845    -757.765     566.545
  O      221.461    -758.939     567.039
  C      219.358    -757.891     566.270
  O      218.710    -758.693     567.273
  C      218.894    -756.422     566.354
  N      218.750    -755.793     565.040
  C      217.564    -756.048     564.361
  O      216.687    -756.790     564.795
  N      217.439    -755.445     563.135
  C      218.405    -754.725     562.489
  O      218.272    -754.286     561.355
  C      219.645    -754.507     563.251
  C      219.756    -755.041     564.465
  O      222.731    -752.935     567.268
  O      224.786    -754.457     567.357
  H      217.751    -758.585     567.138
  H      225.066    -753.712     567.928
  H      216.595    -755.635     562.617
  H      220.427    -753.930     562.784
  H      220.666    -754.894     565.036
  H      217.932    -756.355     566.873
  H      219.160    -758.361     565.306
  H      221.349    -757.422     565.639
  H      220.534    -757.059     568.583
  H      222.108    -755.162     568.504
  H      222.957    -756.691     568.138
  P      222.093    -759.999     566.015
  C      224.263    -761.379     565.945
  O      223.642    -760.180     566.396
  O      221.835    -759.726     564.574
  O      221.448    -761.391     566.451
  H      220.935    -761.756     565.712
  H      225.287    -761.389     566.256
  H      224.214    -761.426     564.877
  H      223.755    -762.223     566.363

 6  7  8  9  10  11  12  13  14  15  16  26  31  32  33  34  35 0
 6-311+G(2d,p)
 ****
 36  37 0
 6-311+G(2d,p)
 ****
 1  2  3  4  5  17  18  19  20  21  22  23  24  25 0
 3-21G
 ****
 27  28  29  30  38  39  40  41  42  43  44  45 0
 3-21G
 ****


