%nproc=1
%NoSave
%Mem=1900MB
#P OB98/GEN NMR

erre ene a

0 1
  C      158.327      44.770      49.581
  O      159.455      45.540      49.958
  P      159.869      45.583      51.503
  C      157.747      46.659      52.549
  O      159.105      46.822      52.178
  C      157.161      47.990      53.026
  O      155.716      47.855      53.180
  C      157.720      48.471      54.374
  O      157.762      49.905      54.337
  C      156.652      48.019      55.351
  O      156.697      48.711      56.589
  C      155.393      48.283      54.518
  N      154.213      47.595      55.035
  C      153.500      48.225      56.050
  O      153.805      49.315      56.532
  N      152.436      47.525      56.554
  C      152.079      46.253      56.216
  O      151.186      45.638      56.788
  C      152.868      45.637      55.138
  C      153.881      46.325      54.605
  O      161.397      46.056      51.460
  O      159.705      44.290      52.229
  H      157.465      48.374      57.085
  H      161.993      45.292      51.568
  H      151.902      47.971      57.282
  H      152.598      44.636      54.829
  H      154.493      45.887      53.823
  H      155.193      49.362      54.468
  H      156.777      46.949      55.558
  H      158.708      48.066      54.608
  H      157.335      48.746      52.250
  H      157.680      45.929      53.357
  H      157.177      46.271      51.697
  P      159.204      50.614      54.328
  C      159.789      50.383      56.864
  O      159.426      51.225      55.790
  O      158.899      51.896      53.416
  O      160.296      49.746      53.792
  H      158.053      52.319      53.635
  H      160.434      49.565      56.534
  H      158.887      49.971      57.320
  H      160.324      50.975      57.611
  H      158.182      44.843      48.523
  H      157.459      45.139      50.086
  H      158.488      43.747      49.849

 3  4  5  6  7  8  9  10  11  12  13  23  28  29  30  31  32 0
 6-311+G(2d,p)
 ****
 33  34 0
 6-311+G(2d,p)
 ****
 1  2  14  15  16  17  18  19  20  21  22  24  25  26 0
 3-21G
 ****
 27  35  36  37  38  39  40  41  42  43  44  45 0
 3-21G
 ****


