%nproc=1
%NoSave
%Mem=1900MB
#P OB98/GEN NMR

erre ene a

0 1
  C      525.192    -353.343      58.421
  O      525.291    -352.125      57.702
  H      524.657    -353.154      59.357
  H      526.190    -353.722      58.656
  H      524.636    -354.080      57.838
  P      526.031    -352.193      56.283
  C      527.099    -349.865      55.794
  O      525.965    -350.707      55.677
  C      526.796    -348.472      55.225
  O      525.936    -347.766      56.169
  C      528.044    -347.594      55.019
  O      527.772    -346.689      53.934
  C      528.103    -346.823      56.323
  O      528.977    -345.728      56.228
  C      526.615    -346.530      56.510
  N      526.388    -342.598      59.782
  C      526.728    -342.664      58.474
  N      526.747    -343.746      57.666
  C      526.357    -344.844      58.329
  C      525.972    -344.935      59.657
  C      526.000    -343.744      60.406
  N      525.662    -343.673      61.734
  N      525.634    -346.239      59.980
  C      525.807    -346.922      58.871
  N      526.250    -346.124      57.849
  O      525.009    -353.025      55.374
  O      527.395    -352.802      56.300
  H      529.912    -346.028      56.158
  H      525.264    -353.967      55.365
  H      527.022    -341.726      58.015
  H      525.642    -347.984      58.748
  H      526.263    -345.753      55.817
  H      528.476    -347.456      57.136
  H      528.946    -348.173      54.793
  H      526.227    -348.583      54.296
  H      527.929    -350.321      55.238
  H      527.382    -349.776      56.845
  H      525.725    -342.782      62.201
  H      525.392    -344.521      62.218
  P      528.957    -346.323      52.900
  C      529.194    -343.754      52.439
  O      528.558    -344.983      52.118
  O      528.766    -347.441      51.770
  O      530.338    -346.368      53.464
  H      529.621    -347.627      51.344
  H      528.801    -342.976      51.818
  H      530.247    -343.844      52.274
  H      529.012    -343.516      53.466

 6  7  8  9  10  11  12  13  14  15  25  28  32  33  34  35 0
 6-311+G(2d,p)
 ****
 36  37  40 0
 6-311+G(2d,p)
 ****
 1  2  3  4  5  16  17  18  19  20  21  22  23  24 0
 3-21G
 ****
 26  27  29  30  31  38  39 41  42  43  44  45  46  47  48 0
 3-21G
 ****


