%nproc=1
%NoSave
%Mem=1900MB
#P OB98/GEN NMR

erre ene a

0 1
  C      830.019    -671.977    -899.168
  O      829.454    -673.269    -898.958
  P      827.878    -673.334    -898.638
  C      828.335    -673.667    -896.058
  O      827.690    -672.928    -897.088
  C      827.395    -673.885    -894.868
  O      826.256    -674.673    -895.298
  C      827.996    -674.645    -893.698
  O      827.203    -674.394    -892.518
  C      827.817    -676.082    -894.118
  O      827.925    -676.991    -893.028
  C      826.436    -676.045    -894.808
  N      826.309    -676.988    -895.948
  C      826.463    -678.349    -895.718
  O      826.672    -678.821    -894.608
  N      826.377    -679.179    -896.818
  C      826.133    -678.772    -898.088
  O      826.183    -679.546    -899.048
  C      825.861    -677.330    -898.288
  C      825.964    -676.536    -897.228
  O      827.562    -674.902    -898.668
  O      827.032    -672.556    -899.598
  H      827.752    -677.890    -893.408
  H      827.078    -675.133    -899.478
  H      826.541    -680.151    -896.668
  H      825.597    -676.999    -899.288
  H      825.770    -675.466    -897.358
  H      825.618    -676.276    -894.108
  H      828.597    -676.360    -894.858
  H      829.048    -674.412    -893.488
  H      827.009    -672.898    -894.518
  H      829.241    -673.152    -895.758
  H      828.643    -674.650    -896.458
  P      827.807    -673.422    -891.378
  C      828.327    -674.879    -889.318
  O      828.834    -674.332    -890.508
  O      826.822    -672.647    -890.588
  O      828.808    -672.480    -892.208
  H      828.993    -671.655    -891.718
  H      828.863    -675.801    -889.098
  H      827.263    -675.074    -889.358
  H      828.539    -674.157    -888.488
  H      831.065    -672.074    -899.370
  H      829.879    -671.380    -898.291
  H      829.537    -671.508    -900.000

 3  4  5  6  7  8  9  10  11  12  13  23  28  29  30  31  32 0
 6-311+G(2d,p)
 ****
 33  34 0
 6-311+G(2d,p)
 ****
 1  2  14  15  16  17  18  19  20  21  22  24  25  26  27 0
 3-21G
 ****
 35  36  37  38  39  40  41  42  43  44  45 0
 3-21G
 ****


