%nproc=1
%NoSave
%Mem=1900MB
#P OB98/GEN NMR

erre ene a

0 1
  C      -75.768      99.250    -321.942
  O      -76.623      98.820    -322.992
  P      -77.940      97.988    -322.609
  C      -79.409      98.556    -324.668
  O      -78.648      97.569    -323.988
  C      -79.723      98.124    -326.101
  O      -78.487      98.096    -326.867
  C      -80.360      96.737    -326.220
  O      -81.251      96.772    -327.339
  C      -79.180      95.844    -326.552
  O      -79.583      94.620    -327.166
  C      -78.375      96.779    -327.448
  N      -74.907      94.206    -330.188
  C      -76.222      94.431    -330.390
  N      -77.081      95.130    -329.613
  C      -76.454      95.618    -328.532
  C      -75.124      95.442    -328.179
  C      -74.329      94.699    -329.065
  N      -72.986      94.477    -328.871
  N      -74.856      96.073    -326.982
  C      -75.998      96.618    -326.618
  N      -76.984      96.390    -327.535
  O      -78.908      99.118    -322.019
  O      -77.733      96.884    -321.629
  H      -80.218      94.829    -327.875
  H      -79.031      98.985    -321.058
  H      -76.641      94.001    -331.294
  H      -76.161      97.181    -325.709
  H      -78.778      96.825    -328.468
  H      -78.631      95.598    -325.636
  H      -80.895      96.410    -325.320
  H      -80.369      98.884    -326.556
  H      -78.829      99.483    -324.703
  H      -72.458      94.056    -329.617
  H      -72.508      94.998    -328.143
  H      -80.333      98.749    -324.117
  P      -82.825      96.759    -327.020
  C      -83.690      98.846    -328.296
  O      -83.552      97.437    -328.273
  O      -82.973      97.848    -325.854
  O      -83.347      95.426    -326.603
  H      -83.742      97.632    -325.296
  H      -83.630      99.188    -329.331
  H      -82.905      99.340    -327.714
  H      -84.664      99.117    -327.885
  H      -74.940      99.788    -322.354
  H      -75.408      98.398    -321.404
  H      -76.312      99.888    -321.277

 3  4  5  6  7  8  9  10  11  12  22  25  29  30  31  32 0
 6-311+G(2d,p)
 ****
 33  36  37 0
 6-311+G(2d,p)
 ****
 1  2  13  14  15  16  17  18  19  20  21  23  24  26 0
 3-21G
 ****
 27  28  34  35  38  39  40  41  42  43  44  45  46  47  48 0
 3-21G
 ****


