%nproc=1
%NoSave
%Mem=1900MB
#P OB98/GEN NMR

erre ene a

0 1
  C      291.307     181.935     227.288
  O      291.163     180.530     227.302
  H      290.325     182.386     227.130
  H      291.965     182.237     226.472
  H      291.707     182.295     228.240
  P      292.421     179.628     227.720
  C      291.397     178.639     229.869
  O      292.387     179.496     229.316
  C      291.999     177.813     231.002
  O      293.104     177.026     230.513
  C      292.561     178.648     232.148
  O      291.522     179.158     232.960
  C      293.463     177.627     232.825
  O      292.700     176.748     233.665
  C      294.037     176.866     231.605
  N      295.373     177.317     231.223
  C      296.427     176.877     232.018
  O      296.266     176.179     233.017
  N      297.677     177.285     231.634
  C      297.958     178.137     230.607
  O      299.095     178.515     230.335
  C      296.804     178.598     229.823
  C      295.586     178.173     230.160
  O      293.736     180.046     227.152
  O      292.009     178.160     227.230
  H      292.132     176.220     233.073
  H      292.451     177.958     226.385
  H      298.450     176.986     232.206
  H      296.990     179.280     229.003
  H      294.720     178.507     229.597
  H      294.088     175.792     231.820
  H      294.220     178.089     233.459
  H      293.183     179.460     231.755
  H      291.229     177.121     231.368
  H      291.034     177.968     229.082
  H      290.564     179.247     230.232
  P      291.587     180.649     233.534
  C      290.342     182.097     231.829
  O      291.614     181.650     232.278
  O      292.655     180.895     234.547
  O      290.134     180.889     234.156
  H      290.182     180.863     235.132
  H      290.469     182.754     230.994
  H      289.847     182.618     232.622
  H      289.752     181.255     231.533

 6  7  8  9  10  11  12  13  14  15  16  26  31  32  33  34  35 0
 6-311+G(2d,p)
 ****
 36  37 0
 6-311+G(2d,p)
 ****
 1  2  3  4  5  17  18  19  20  21  22  23  24  25 0
 3-21G
 ****
 27  28  29  30  38  39  40  41  42  43  44  45 0
 3-21G
 ****


