%nproc=1
%NoSave
%Mem=1900MB
#P OB98/GEN NMR

erre ene a

0 1
  C     -220.795     -39.319    -108.125
  O     -221.762     -38.599    -108.862
  P     -223.090     -38.026    -108.172
  C     -225.336     -38.946    -107.351
  O     -224.010     -39.271    -107.754
  C     -226.025     -40.140    -106.683
  O     -225.260     -40.532    -105.502
  C     -227.470     -39.869    -106.238
  O     -228.216     -41.060    -106.478
  C     -227.324     -39.618    -104.743
  O     -228.543     -39.830    -104.045
  C     -226.187     -40.586    -104.401
  N     -225.532     -40.247    -103.144
  C     -226.157     -40.678    -101.972
  O     -227.271     -41.202    -102.022
  N     -225.502     -40.499    -100.775
  C     -224.423     -39.779    -100.734
  N     -223.774     -39.685     -99.542
  C     -223.869     -39.099    -101.930
  C     -224.442     -39.403    -103.091
  O     -223.796     -36.959    -108.942
  O     -222.574     -37.464    -106.756
  H     -222.871     -36.538    -106.657
  H     -228.406     -39.617    -103.100
  H     -223.050     -38.407    -101.824
  H     -224.095     -38.974    -104.023
  H     -226.564     -41.614    -104.331
  H     -227.009     -38.576    -104.572
  H     -227.926     -39.033    -106.778
  H     -225.996     -40.990    -107.383
  H     -224.155     -40.199     -98.762
  H     -225.901     -38.670    -108.242
  H     -222.788     -39.426     -99.489
  H     -225.325     -38.085    -106.677
  P     -229.074     -41.164    -107.835
  C     -231.181     -40.007    -108.817
  O     -230.184     -40.013    -107.812
  O     -229.951     -42.490    -107.561
  O     -228.293     -41.334    -109.105
  H     -230.211     -42.885    -108.420
  H     -231.802     -39.120    -108.682
  H     -231.821     -40.901    -108.729
  H     -230.729     -39.971    -109.812
  H     -219.994     -39.608    -108.774
  H     -221.246     -40.193    -107.704
  H     -220.413     -38.701    -107.339

 3  4  5  6  7  8  9  10  11  12  13  24  27  28  29  30  32 0
 6-311+G(2d,p)
 ****
 34  35 0
 6-311+G(2d,p)
 ****
 1  2  14  15  16  17  18  19  20  21  22  23  25  26 0
 3-21G
 ****
 31  33  36  37  38  39  40  41  42  43  44  45  46 0
 3-21G
 ****


