%nproc=1
%NoSave
%Mem=1900MB
#P OB98/GEN NMR

erre ene a

0 1
  C       91.233    -248.823     151.086
  O       90.218    -247.984     151.619
  P       90.418    -247.411     153.104
  C       89.989    -249.659     154.359
  O       89.545    -248.340     154.080
  C       88.806    -250.635     154.370
  O       89.309    -251.963     154.691
  C       87.709    -250.302     155.392
  O       86.467    -250.738     154.824
  C       88.068    -251.185     156.578
  O       86.957    -251.419     157.441
  C       88.589    -252.425     155.855
  N       88.835    -255.463     159.901
  C       87.757    -254.754     159.389
  N       86.570    -254.936     160.013
  N       87.840    -253.950     158.363
  C       89.091    -253.887     157.832
  C       90.240    -254.505     158.272
  C       90.127    -255.423     159.384
  O       91.029    -256.135     159.816
  N       91.327    -254.130     157.532
  C       90.828    -253.349     156.600
  N       89.467    -253.209     156.708
  O       89.611    -246.033     153.069
  O       91.841    -247.233     153.548
  H       86.275    -251.903     156.925
  H       90.202    -245.282     152.856
  H       88.704    -256.084     160.681
  H       91.391    -252.858     155.818
  H       87.775    -253.086     155.519
  H       88.862    -250.712     157.167
  H       86.429    -255.564     160.789
  H       87.664    -249.245     155.653
  H       85.758    -254.451     159.637
  H       88.387    -250.681     153.361
  H       90.458    -249.671     155.349
  H       90.738    -249.963     153.614
  P       85.204    -249.753     154.943
  C       84.435    -249.775     157.417
  O       84.270    -250.304     156.114
  O       84.368    -250.096     153.614
  O       85.547    -248.296     155.000
  H       83.903    -249.297     153.301
  H       83.514    -249.929     157.985
  H       84.660    -248.701     157.394
  H       85.255    -250.301     157.924
  H       90.962    -249.125     150.096
  H       91.342    -249.688     151.706
  H       92.159    -248.287     151.055

 3  4  5  6  7  8  9  10  11  12  23  26  30  31 0
 6-311+G(2d,p)
 ****
 33  35  36  37  38 0
 6-311+G(2d,p)
 ****
 1  2  13  14  15  16  17  18  19  20  21  22  24  25 0
 3-21G
 ****
 27  28  29  32  34  39  40  41  42  43  44  45  46  47  48  49 0
 3-21G
 ****


