%nproc=1
%NoSave
%Mem=1900MB
#P OB98/GEN NMR

erre ene a

0 1
  C      113.007    -482.645     326.378
  O      112.568    -481.375     325.947
  H      112.332    -483.404     325.978
  H      112.974    -482.687     327.471
  H      114.023    -482.855     326.029
  P      113.588    -480.144     326.009
  C      114.222    -478.306     327.703
  O      113.511    -479.514     327.488
  C      113.348    -477.240     328.375
  O      112.338    -476.778     327.449
  C      112.596    -477.788     329.584
  O      113.322    -477.793     330.799
  C      111.399    -476.830     329.668
  O      111.742    -475.645     330.405
  C      111.139    -476.493     328.200
  N      106.202    -477.762     328.572
  C      106.972    -477.017     329.442
  N      106.370    -476.603     330.579
  N      108.229    -476.720     329.216
  C      108.722    -477.276     328.082
  C      108.056    -478.048     327.150
  C      106.651    -478.320     327.386
  O      105.925    -478.986     326.649
  N      108.889    -478.434     326.135
  C      110.071    -477.964     326.480
  N      110.015    -477.227     327.643
  O      112.874    -479.016     325.116
  O      114.974    -480.431     325.507
  H      112.465    -475.188     329.935
  H      113.543    -478.414     324.748
  H      105.230    -477.933     328.783
  H      110.991    -478.095     325.914
  H      110.921    -475.423     328.064
  H      110.553    -477.286     330.180
  H      105.444    -476.905     330.848
  H      112.213    -478.790     329.378
  H      106.963    -476.295     331.351
  H      113.963    -476.372     328.637
  H      114.558    -477.954     326.729
  H      115.119    -478.493     328.310
  P      112.876    -478.752     332.002
  C      111.662    -478.293     334.266
  O      111.863    -477.908     332.919
  O      114.206    -478.847     332.891
  O      112.388    -480.093     331.584
  H      114.694    -479.663     332.666
  H      110.962    -477.628     334.726
  H      112.593    -478.251     334.792
  H      111.279    -479.292     334.298

 6  7  8  9  10  11  12  13  14  15  26  29  33  34 0
 6-311+G(2d,p)
 ****
 36  38  39  40  41 0
 6-311+G(2d,p)
 ****
 1  2  3  4  5  16  17  18  19  20  21  22  23  24  25 0
 3-21G
 ****
 27  28  30  31  32  35  37  42  43  44  45  46  47 0
 3-21G
 ****
 48  49 0
 3-21G
 ****


