%nproc=1
%NoSave
%Mem=1900MB
#P OB98/GEN NMR

erre ene a

0 1
  C      -12.837    -157.111     157.147
  O      -12.914    -158.442     157.615
  P      -11.826    -159.037     158.635
  C      -10.519    -160.218     156.758
  O      -11.278    -160.381     157.950
  C      -10.056    -161.568     156.203
  O       -9.448    -161.371     154.896
  C       -9.036    -162.306     157.082
  O       -9.304    -163.701     156.922
  C       -7.717    -161.935     156.430
  O       -6.662    -162.828     156.779
  C       -8.120    -161.935     154.949
  N       -7.172    -161.188     154.126
  C       -6.032    -161.878     153.702
  O       -5.822    -163.032     154.083
  N       -5.124    -161.227     152.903
  C       -5.292    -159.966     152.636
  N       -4.366    -159.375     151.832
  C       -6.414    -159.172     153.169
  C       -7.314    -159.840     153.886
  O      -12.295    -159.196     160.043
  O      -10.582    -158.042     158.484
  H       -6.947    -163.743     156.558
  H      -10.753    -157.197     158.975
  H       -6.483    -158.113     152.967
  H       -8.174    -159.344     154.320
  H       -8.179    -162.960     154.564
  H       -7.417    -160.929     156.743
  H       -9.077    -162.022     158.135
  H      -10.946    -162.192     156.057
  H       -3.620    -159.962     151.477
  H       -9.637    -159.615     157.000
  H       -4.446    -158.429     151.501
  H      -11.104    -159.669     156.014
  P       -9.433    -164.676     158.189
  C       -7.345    -165.897     157.355
  O       -8.676    -166.035     157.814
  O      -10.825    -164.853     158.710
  O       -8.481    -164.017     159.297
  H       -8.691    -164.394     160.174
  H       -6.847    -166.869     157.402
  H       -6.789    -165.181     157.967
  H       -7.352    -165.552     156.315
  H      -13.653    -156.919     156.482
  H      -11.912    -156.968     156.628
  H      -12.887    -156.438     157.977

 3  4  5  6  7  8  9  10  11  12  13  23  27  28  29  30  32 0
 6-311+G(2d,p)
 ****
 34  35 0
 6-311+G(2d,p)
 ****
 1  2  14  15  16  17  18  19  20  21  22  24  25  26 0
 3-21G
 ****
 31  33  36  37  38  39  40  41  42  43  44  45  46 0
 3-21G
 ****


