%nproc=1
%NoSave
%Mem=1900MB
#P OB98/GEN NMR

erre ene a

0 1
  C       75.733    -141.145    -124.142
  O       76.020    -140.785    -125.496
  P       77.562    -140.779    -125.947
  C       78.409    -138.307    -125.901
  O       77.810    -139.354    -126.644
  C       77.924    -136.940    -126.396
  O       78.287    -136.768    -127.799
  C       76.411    -136.723    -126.275
  O       76.215    -135.346    -125.921
  C       75.915    -136.979    -127.687
  O       74.655    -136.368    -127.929
  C       77.079    -136.408    -128.503
  N       77.095    -136.893    -129.881
  C       76.332    -136.192    -130.804
  O       75.601    -135.253    -130.492
  N       76.398    -136.636    -132.097
  C       77.078    -137.739    -132.531
  O       77.104    -138.093    -133.701
  C       77.776    -138.507    -131.488
  C       77.750    -138.056    -130.231
  O       77.541    -141.817    -127.160
  O       78.495    -141.120    -124.833
  H       76.733    -141.769    -127.699
  H       74.344    -136.622    -128.820
  H       75.876    -136.123    -132.789
  H       78.277    -139.419    -131.783
  H       78.235    -138.609    -129.437
  H       77.030    -135.312    -128.524
  H       75.816    -138.056    -127.857
  H       75.946    -137.369    -125.525
  H       78.455    -136.166    -125.829
  H       79.497    -138.353    -126.005
  H       78.184    -138.445    -124.837
  P       75.955    -134.988    -124.373
  C       73.447    -134.336    -124.739
  O       74.738    -133.949    -124.329
  O       77.231    -134.060    -124.084
  O       75.875    -136.163    -123.457
  H       77.376    -133.387    -124.770
  H       72.731    -133.577    -124.412
  H       73.161    -135.294    -124.296
  H       73.409    -134.408    -125.829
  H       74.676    -141.108    -123.979
  H       76.220    -140.460    -123.480
  H       76.088    -142.137    -123.954

 3  4  5  6  7  8  9  10  11  12  13  24  28  29  30  31  32 0
 6-311+G(2d,p)
 ****
 33  34 0
 6-311+G(2d,p)
 ****
 1  2  14  15  16  17  18  19  20  21  22  23  25  26  27 0
 3-21G
 ****
 35  36  37  38  39  40  41  42  43  44  45 0
 3-21G
 ****


