%nproc=1
%NoSave
%Mem=1900MB
#P OB98/GEN NMR

erre ene a

0 1
  C      121.267    -123.122     361.074
  O      121.835    -124.378     360.775
  H      122.073    -122.423     361.306
  H      120.613    -123.198     361.945
  H      120.705    -122.739     360.214
  P      120.873    -125.620     360.432
  C      121.155    -128.170     360.344
  O      121.814    -126.924     360.516
  C      122.116    -129.233     359.811
  O      122.409    -128.960     358.411
  C      123.455    -129.293     360.563
  O      123.781    -130.646     360.873
  C      124.457    -128.745     359.553
  O      125.786    -129.191     359.785
  C      123.819    -129.206     358.237
  N      124.369    -128.506     357.082
  C      125.551    -129.029     356.543
  O      126.068    -130.032     357.048
  N      126.144    -128.375     355.503
  C      125.637    -127.266     355.055
  N      126.294    -126.654     354.040
  C      124.404    -126.664     355.614
  C      123.825    -127.330     356.610
  O      120.106    -125.476     359.159
  O      119.932    -125.776     361.716
  H      125.812    -130.162     359.664
  H      119.112    -126.256     361.458
  H      124.021    -125.735     355.210
  H      122.918    -126.965     357.080
  H      123.960    -130.288     358.089
  H      124.450    -127.648     359.599
  H      123.454    -128.703     361.480
  H      121.604    -130.206     359.830
  H      127.138    -127.096     353.695
  H      120.314    -128.027     359.648
  H      126.005    -125.780     353.632
  H      120.763    -128.494     361.317
  P      123.376    -131.156     362.342
  C      124.246    -133.065     363.871
  O      124.562    -132.088     362.890
  O      122.176    -132.171     362.065
  O      122.958    -130.054     363.257
  H      121.336    -131.791     362.379
  H      125.132    -133.604     364.136
  H      123.520    -133.744     363.477
  H      123.849    -132.583     364.740

 6  7  8  9  10  11  12  13  14  15  16  26  30  31  32  33  35 0
 6-311+G(2d,p)
 ****
 37  38 0
 6-311+G(2d,p)
 ****
 1  2  3  4  5  17  18  19  20  21  22  23  24  25 0
 3-21G
 ****
 27  28  29  34  36  39  40  41  42  43  44  45  46 0
 3-21G
 ****


