%nproc=1
%NoSave
%Mem=1900MB
#P OB98/GEN NMR

erre ene a

0 1
  C      108.539    -324.575     332.451
  O      108.473    -325.714     331.615
  H      107.538    -324.144     332.532
  H      109.212    -323.822     332.030
  H      108.880    -324.858     333.452
  P      109.845    -326.465     331.243
  C      109.319    -325.963     328.755
  O      109.624    -326.956     329.723
  C      109.331    -326.579     327.353
  O      109.067    -325.575     326.348
  C      110.655    -327.211     326.935
  O      110.909    -328.458     327.574
  C      110.418    -327.358     325.441
  O      109.541    -328.472     325.197
  C      109.714    -326.013     325.115
  N      110.639    -324.987     324.628
  C      110.995    -325.067     323.273
  O      110.543    -325.960     322.557
  N      111.890    -324.151     322.772
  C      112.399    -323.244     323.554
  N      113.314    -322.390     323.020
  C      112.033    -323.115     324.984
  C      111.164    -324.015     325.447
  O      110.303    -327.522     332.195
  O      110.908    -325.282     331.045
  H      108.730    -328.318     325.716
  H      111.778    -325.695     330.825
  H      112.490    -322.354     325.596
  H      110.856    -323.994     326.494
  H      108.920    -326.163     324.372
  H      111.340    -327.536     324.872
  H      111.487    -326.513     327.095
  H      108.496    -327.302     327.305
  H      113.569    -322.533     322.054
  H      110.064    -325.161     328.835
  H      113.947    -321.857     323.610
  H      108.322    -325.545     328.938
  P      112.310    -328.644     328.331
  C      113.789    -329.371     326.309
  O      113.140    -329.747     327.515
  O      111.892    -329.396     329.678
  O      113.081    -327.381     328.593
  H      111.747    -328.759     330.407
  H      114.293    -330.220     325.896
  H      114.500    -328.598     326.513
  H      113.063    -329.012     325.610

 6  7  8  9  10  11  12  13  14  15  16  26  30  31  32  33  35 0
 6-311+G(2d,p)
 ****
 37  38 0
 6-311+G(2d,p)
 ****
 1  2  3  4  5  17  18  19  20  21  22  23  24  25 0
 3-21G
 ****
 27  28  29  34  36  39  40  41  42  43  44  45  46 0
 3-21G
 ****


