%nproc=1
%NoSave
%Mem=1900MB
#P OB98/GEN NMR

erre ene a

0 1
  C      162.577     101.015     276.357
  O      163.202     102.183     276.844
  H      161.813     101.304     275.630
  H      162.094     100.483     277.182
  H      163.296     100.356     275.866
  P      164.583     102.043     277.641
  C      165.277     101.287     280.008
  O      164.261     101.283     279.016
  C      164.842     100.496     281.247
  O      163.819     101.235     281.961
  C      164.218      99.160     280.836
  O      164.392      98.157     281.833
  C      162.740      99.497     280.722
  O      161.897      98.356     280.832
  C      162.584     100.505     281.860
  N      157.553     101.270     282.133
  C      158.270     100.102     282.306
  N      157.551      98.989     282.565
  N      159.573     100.033     282.218
  C      160.154     101.209     281.880
  C      159.549     102.424     281.658
  C      158.111     102.496     281.798
  O      157.420     103.500     281.637
  N      160.467     103.387     281.316
  C      161.623     102.755     281.324
  N      161.486     101.432     281.675
  O      164.890     103.537     278.133
  O      165.729     101.479     276.858
  H      162.206      97.834     281.596
  H      165.845     103.658     278.277
  H      156.553     101.271     282.227
  H      162.580     103.204     281.091
  H      162.419      99.988     282.815
  H      162.564      99.937     279.736
  H      156.548      98.961     282.469
  H      164.620      98.793     279.891
  H      158.021      98.093     282.404
  H      165.685     100.376     281.935
  H      165.461     102.331     280.278
  H      166.206     100.882     279.598
  P      165.198      96.833     281.421
  C      164.537      94.350     280.896
  O      164.162      95.611     281.418
  O      166.134      96.555     282.688
  O      165.984      96.979     280.163
  H      167.055      96.796     282.485
  H      163.716      93.670     280.982
  H      165.373      93.971     281.445
  H      164.806      94.456     279.866

 6  7  8  9  10  11  12  13  14  15  26  29  33  34 0
 6-311+G(2d,p)
 ****
 36  38  39  40  41 0
 6-311+G(2d,p)
 ****
 1  2  3  4  5  16  17  18  19  20  21  22  23  24  25 0
 3-21G
 ****
 27  28  30  31  32  35  37  42  43  44  45  46  47 0
 3-21G
 ****
 48  49 0
 3-21G
 ****


