%nproc=1
%NoSave
%Mem=1900MB
#P OB98/GEN NMR

erre ene a

0 1
  C       40.710     -79.975      -2.065
  O       41.646     -79.668      -3.077
  H       41.105     -79.634      -1.104
  H       40.567     -81.057      -2.019
  H       39.754     -79.480      -2.251
  P       41.128     -79.710      -4.594
  C       40.586     -77.210      -5.033
  O       41.489     -78.285      -5.242
  C       40.937     -76.034      -5.945
  O       39.771     -75.161      -6.045
  C       42.117     -75.183      -5.448
  O       42.876     -74.740      -6.580
  C       41.427     -73.976      -4.839
  O       42.275     -72.835      -4.790
  C       40.237     -73.825      -5.781
  N       39.417     -69.306      -3.760
  C       40.512     -69.799      -4.440
  N       41.585     -68.988      -4.550
  N       40.556     -70.995      -4.966
  C       39.409     -71.698      -4.800
  C       38.261     -71.326      -4.145
  C       38.230     -70.005      -3.551
  O       37.299     -69.520      -2.919
  N       37.344     -72.348      -4.143
  C       37.948     -73.339      -4.777
  N       39.203     -72.993      -5.193
  O       39.537     -79.652      -4.421
  O       41.559     -80.899      -5.384
  H       42.620     -72.671      -5.691
  H       39.170     -80.556      -4.429
  H       39.441     -68.385      -3.359
  H       37.531     -74.322      -4.941
  H       40.514     -73.362      -6.737
  H       41.097     -74.208      -3.819
  H       41.615     -68.043      -4.199
  H       42.773     -75.702      -4.742
  H       42.380     -69.321      -5.082
  H       41.135     -76.419      -6.953
  H       40.652     -76.883      -3.990
  H       39.565     -77.553      -5.229
  P       44.143     -75.615      -7.026
  C       42.931     -77.530      -8.305
  O       43.777     -76.393      -8.380
  O       44.179     -76.783      -5.931
  O       45.426     -74.852      -7.054
  H       45.103     -77.032      -5.745
  H       42.785     -77.931      -9.286
  H       41.986     -77.245      -7.892
  H       43.384     -78.271      -7.680

 6  7  8  9  10  11  12  13  14  15  26  29  33  34 0
 6-311+G(2d,p)
 ****
 36  38  39  40  41 0
 6-311+G(2d,p)
 ****
 1  2  3  4  5  16  17  18  19  20  21  22  23  24  25 0
 3-21G
 ****
 27  28  30  31  32  35  37  42  43  44  45  46  47 0
 3-21G
 ****
 48  49 0
 3-21G
 ****


