%nproc=1
%NoSave
%Mem=1900MB
#P OB98/GEN NMR

erre ene a

0 1
  C     -259.417    -252.526    -169.244
  O     -259.005    -251.185    -169.075
  H     -258.569    -253.110    -169.613
  H     -260.227    -252.576    -169.977
  H     -259.750    -252.947    -168.291
  P     -260.079    -250.169    -168.451
  C     -259.644    -248.158    -170.030
  O     -259.510    -248.689    -168.719
  C     -258.357    -247.452    -170.461
  O     -257.391    -248.456    -170.894
  C     -258.541    -246.462    -171.620
  O     -257.640    -245.365    -171.414
  C     -258.051    -247.254    -172.823
  O     -257.664    -246.418    -173.913
  C     -256.906    -248.037    -172.183
  N     -252.933    -250.231    -174.359
  C     -253.012    -249.108    -173.550
  N     -251.849    -248.473    -173.279
  N     -254.128    -248.654    -173.052
  C     -255.206    -249.408    -173.378
  C     -255.265    -250.530    -174.169
  C     -254.023    -251.012    -174.739
  O     -253.895    -251.985    -175.475
  N     -256.556    -250.990    -174.284
  C     -257.271    -250.144    -173.561
  N     -256.501    -249.168    -172.993
  O     -259.877    -250.372    -166.874
  O     -261.492    -250.395    -168.866
  H     -257.109    -246.953    -174.518
  H     -260.505    -251.034    -166.535
  H     -252.047    -250.533    -174.726
  H     -258.344    -250.195    -173.420
  H     -256.016    -247.419    -172.032
  H     -258.840    -247.931    -173.174
  H     -250.948    -248.796    -173.590
  H     -259.563    -246.086    -171.738
  H     -251.878    -247.676    -172.654
  H     -257.924    -246.954    -169.587
  H     -260.469    -247.437    -170.041
  H     -259.874    -248.973    -170.729
  P     -258.206    -243.879    -171.601
  C     -256.532    -243.139    -173.452
  O     -257.009    -242.952    -172.130
  O     -258.402    -243.378    -170.092
  O     -259.479    -243.800    -172.382
  H     -259.115    -242.713    -170.056
  H     -255.739    -242.447    -173.646
  H     -257.329    -242.972    -174.146
  H     -256.167    -244.139    -173.562

 6  7  8  9  10  11  12  13  14  15  26  29  33  34 0
 6-311+G(2d,p)
 ****
 36  38  39  40  41 0
 6-311+G(2d,p)
 ****
 1  2  3  4  5  16  17  18  19  20  21  22  23  24  25 0
 3-21G
 ****
 27  28  30  31  32  35  37  42  43  44  45  46  47 0
 3-21G
 ****
 48  49 0
 3-21G
 ****


