%nproc=1
%NoSave
%Mem=1900MB
#P OB98/GEN NMR

erre ene a

0 1
  C     -808.446     641.340    -894.800
  O     -807.510     640.341    -894.480
  P     -806.647     639.619    -895.630
  C     -805.305     641.755    -896.160
  O     -805.222     640.420    -895.720
  C     -804.084     642.518    -895.650
  O     -804.108     642.678    -894.200
  C     -802.745     641.820    -895.920
  O     -802.352     641.673    -897.260
  C     -801.812     642.573    -894.980
  O     -801.384     643.815    -895.590
  C     -802.737     642.860    -893.760
  N     -802.398     641.983    -892.640
  C     -802.100     642.628    -891.450
  O     -802.046     643.839    -891.310
  N     -801.751     641.785    -890.400
  C     -801.651     640.420    -890.470
  O     -801.302     639.750    -889.490
  C     -802.001     639.824    -891.750
  C     -802.357     640.580    -892.770
  O     -807.351     639.482    -896.930
  O     -806.223     638.210    -894.950
  H     -800.737     644.230    -895.010
  H     -805.695     638.318    -894.130
  H     -801.485     642.215    -889.540
  H     -801.964     638.736    -891.810
  H     -802.617     640.173    -893.740
  H     -802.644     643.900    -893.440
  H     -800.901     642.027    -894.770
  H     -802.824     640.799    -895.520
  H     -804.085     643.536    -896.100
  H     -806.198     642.216    -895.780
  H     -805.347     641.779    -897.250
  P     -801.740     640.303    -897.860
  C     -803.830     639.246    -899.010
  O     -802.557     639.927    -899.160
  O     -801.414     639.220    -896.890
  O     -800.346     640.854    -898.520
  H     -799.660     640.150    -898.440
  H     -804.201     638.994    -900.000
  H     -804.527     639.874    -898.470
  H     -803.676     638.312    -898.470
  H     -808.912     641.692    -893.904
  H     -809.190     640.935    -895.454
  H     -807.948     642.153    -895.286

 3  4  5  6  7  8  9  10  11  12  13  23  28  29  30  31  32 0
 6-311+G(2d,p)
 ****
 33  34 0
 6-311+G(2d,p)
 ****
 1  2  14  15  16  17  18  19  20  21  22  24  25  26  27 0
 3-21G
 ****
 35  36  37  38  39  40  41  42  43  44  45 0
 3-21G
 ****


