%nproc=1
%NoSave
%Mem=1900MB
#P OB98/GEN NMR

erre ene a

0 1
  C     -166.876     281.321     155.363
  O     -166.618     280.084     155.998
  H     -167.532     281.912     156.007
  H     -167.382     281.158     154.408
  H     -165.947     281.876     155.205
  P     -165.597     279.059     155.309
  C     -163.076     278.584     155.486
  O     -164.121     279.505     155.758
  C     -161.747     279.101     156.032
  O     -161.317     280.226     155.225
  C     -161.820     279.567     157.490
  O     -160.603     279.206     158.142
  C     -161.907     281.076     157.372
  O     -161.398     281.740     158.530
  C     -161.088     281.341     156.109
  N     -159.983     286.255     155.730
  C     -159.331     285.245     156.408
  N     -158.232     285.597     157.112
  N     -159.722     283.999     156.401
  C     -160.826     283.788     155.643
  C     -161.563     284.703     154.928
  C     -161.127     286.083     154.956
  O     -161.671     287.022     154.389
  N     -162.633     284.104     154.311
  C     -162.546     282.832     154.653
  N     -161.472     282.591     155.471
  O     -165.765     278.881     153.833
  O     -165.825     277.690     156.102
  H     -161.998     281.518     159.274
  H     -166.395     277.085     155.591
  H     -159.644     287.201     155.778
  H     -163.230     282.053     154.349
  H     -160.013     281.406     156.315
  H     -162.952     281.378     157.235
  H     -157.861     286.532     157.152
  H     -162.674     279.145     158.030
  H     -157.722     284.867     157.596
  H     -160.992     278.315     155.908
  H     -163.004     278.458     154.400
  H     -163.317     277.616     155.939
  P     -160.266     277.650     158.339
  C     -160.498     276.093     156.298
  O     -159.702     277.079     156.951
  O     -161.341     276.833     158.975
  O     -158.951     277.686     159.259
  H     -158.933     276.883     159.814
  H     -160.020     275.793     155.389
  H     -161.461     276.502     156.076
  H     -160.611     275.244     156.939

 6  7  8  9  10  11  12  13  14  15  26  29  33  34 0
 6-311+G(2d,p)
 ****
 36  38  39  40  41 0
 6-311+G(2d,p)
 ****
 1  2  3  4  5  16  17  18  19  20  21  22  23  24  25 0
 3-21G
 ****
 27  28  30  31  32  35  37  42  43  44  45  46  47 0
 3-21G
 ****
 48  49 0
 3-21G
 ****


