%nproc=1
%NoSave
%Mem=1900MB
#P OB98/GEN NMR

erre ene a

0 1
  C      159.194     415.080       3.651
  O      158.540     413.893       4.136
  P      157.141     413.453       3.476
  C      155.488     414.077       5.397
  O      155.938     414.328       4.073
  C      154.457     415.129       5.845
  O      153.790     414.680       7.065
  C      155.047     416.515       6.138
  O      154.047     417.482       5.779
  C      155.236     416.484       7.645
  O      155.348     417.772       8.224
  C      153.971     415.717       8.056
  N      154.032     415.143       9.403
  C      153.869     416.006      10.486
  O      153.741     417.222      10.389
  N      153.888     415.411      11.725
  C      154.087     414.087      11.984
  O      154.124     413.625      13.120
  C      154.281     413.232      10.803
  C      154.246     413.788       9.593
  O      156.892     412.024       4.156
  O      157.151     413.322       1.986
  H      154.656     418.338       7.827
  H      156.615     411.378       3.476
  H      153.756     416.018      12.518
  H      154.442     412.174      10.965
  H      154.371     413.174       8.705
  H      153.100     416.381       7.988
  H      156.150     415.928       7.887
  H      155.978     416.707       5.588
  H      153.682     415.195       5.070
  H      156.344     414.101       6.079
  H      155.046     413.074       5.437
  P      153.850     417.841       4.230
  C      155.580     419.794       4.047
  O      155.226     418.473       3.704
  O      152.878     419.113       4.350
  O      153.266     416.734       3.406
  H      153.174     419.741       5.030
  H      155.339     420.014       5.094
  H      155.053     420.498       3.395
  H      156.656     419.921       3.906
  H      160.105     415.231       4.191
  H      158.552     415.924       3.792
  H      159.411     414.967       2.609

 3  4  5  6  7  8  9  10  11  12  13  23  28  29  30  31  32 0
 6-311+G(2d,p)
 ****
 33  34 0
 6-311+G(2d,p)
 ****
 1  2  14  15  16  17  18  19  20  21  22  24  25  26 0
 3-21G
 ****
 27  35  36  37  38  39  40  41  42  43  44  45 0
 3-21G
 ****


