%nproc=1
%NoSave
%Mem=1900MB
#P OB98/GEN NMR

erre ene a

0 1
  C     -181.496     -98.154    -148.019
  O     -181.768     -98.602    -146.690
  P     -183.310     -98.579    -146.242
  C     -183.226     -96.326    -144.964
  O     -183.743     -97.042    -146.075
  C     -183.986     -95.011    -144.754
  O     -183.707     -94.461    -143.430
  C     -183.627     -93.922    -145.778
  O     -184.826     -93.176    -146.024
  C     -182.617     -93.083    -145.011
  O     -182.396     -91.807    -145.586
  C     -183.262     -93.101    -143.631
  N     -180.817     -89.121    -141.579
  C     -181.630     -89.227    -142.652
  N     -182.241     -90.327    -143.139
  C     -181.945     -91.400    -142.385
  C     -181.132     -91.450    -141.264
  C     -180.550     -90.237    -140.858
  N     -179.704     -90.122    -139.779
  N     -181.053     -92.746    -140.775
  C     -181.750     -93.464    -141.637
  N     -182.371     -92.687    -142.572
  O     -183.272     -99.133    -144.742
  O     -184.201     -99.388    -147.127
  H     -181.761     -91.302    -145.038
  H     -183.517    -100.077    -144.721
  H     -181.810     -88.302    -143.198
  H     -181.836     -94.541    -141.628
  H     -184.147     -92.453    -143.579
  H     -181.652     -93.607    -144.993
  H     -183.249     -94.318    -146.725
  H     -185.061     -95.224    -144.797
  H     -182.167     -96.105    -145.119
  H     -179.332     -89.210    -139.569
  H     -179.471     -90.932    -139.223
  H     -183.281     -96.961    -144.073
  P     -185.707     -93.530    -147.318
  C     -184.391     -92.051    -148.949
  O     -184.689     -93.375    -148.551
  O     -186.574     -92.189    -147.459
  O     -186.516     -94.780    -147.245
  H     -186.008     -91.398    -147.424
  H     -183.631     -92.084    -149.737
  H     -184.001     -91.478    -148.103
  H     -185.289     -91.569    -149.346
  H     -180.444     -98.212    -148.207
  H     -181.822     -97.141    -148.128
  H     -182.018     -98.773    -148.718

 3  4  5  6  7  8  9  10  11  12  22  25  29  30  31  32 0
 6-311+G(2d,p)
 ****
 33  36  37 0
 6-311+G(2d,p)
 ****
 1  2  13  14  15  16  17  18  19  20  21  23  24  26 0
 3-21G
 ****
 27  28  34  35  38  39  40  41  42  43  44  45  46  47  48 0
 3-21G
 ****


