%nproc=1
%NoSave
%Mem=1900MB
#P OB98/GEN NMR

erre ene a

0 1
  C        5.013      -1.430     121.150
  O        4.484      -1.353     122.462
  P        3.888       0.068     122.923
  C        1.728      -0.144     121.472
  O        2.931       0.559     121.738
  C        0.529       0.726     121.855
  O        0.403       0.802     123.289
  C        0.613       2.162     121.358
  O        0.207       2.244     120.004
  C       -0.324       2.875     122.326
  O       -1.698       2.707     121.928
  C       -0.040       2.141     123.645
  N        0.943       3.883     128.286
  C       -0.245       3.438     127.736
  N       -1.314       3.413     128.561
  N       -0.371       3.050     126.496
  C        0.778       3.142     125.787
  C        2.010       3.580     126.212
  C        2.147       3.957     127.600
  O        3.197       4.265     128.159
  N        2.931       3.553     125.198
  C        2.263       3.069     124.171
  N        0.959       2.783     124.480
  O        5.154       1.038     122.833
  O        3.249       0.079     124.276
  H       -1.848       3.174     121.086
  H        5.557       1.164     123.714
  H        0.984       4.153     129.252
  H        2.682       2.887     123.193
  H       -0.942       2.030     124.257
  H       -0.139       3.952     122.362
  H       -1.297       3.719     129.521
  H        1.632       2.550     121.480
  H       -2.194       3.093     128.175
  H       -0.375       0.239     121.468
  H        1.710      -1.063     122.063
  H        1.692      -0.405     120.410
  P        0.691       3.521     119.162
  C        2.751       2.548     117.919
  O        2.272       3.382     118.956
  O        0.542       4.727     120.206
  O       -0.097       3.777     117.921
  H        0.257       5.533     119.735
  H        3.708       2.940     117.568
  H        2.054       2.505     117.077
  H        2.902       1.540     118.312
  H        5.374      -2.421     120.969
  H        5.818      -0.732     121.049
  H        4.246      -1.195     120.442

 3  4  5  6  7  8  9  10  11  12  23  26  30  31 0
 6-311+G(2d,p)
 ****
 33  35  36  37  38 0
 6-311+G(2d,p)
 ****
 1  2  13  14  15  16  17  18  19  20  21  22  24  25 0
 3-21G
 ****
 27  28  29  32  34  39  40  41  42  43  44  45  46  47  48  49 0
 3-21G
 ****


