%nproc=1
%NoSave
%Mem=1900MB
#P OB98/GEN NMR

erre ene a

0 1
  C     -237.406     695.649    -517.974
  O     -238.579     694.877    -517.990
  H     -236.621     695.122    -518.529
  H     -237.067     695.786    -516.939
  H     -237.572     696.631    -518.432
  P     -239.951     695.607    -517.585
  C     -240.801     695.515    -520.041
  O     -240.491     696.331    -518.914
  C     -241.106     696.382    -521.264
  O     -239.916     697.180    -521.562
  C     -241.472     695.585    -522.537
  O     -242.463     696.312    -523.255
  C     -240.171     695.625    -523.327
  O     -240.408     695.420    -524.726
  C     -239.660     697.013    -522.971
  N     -236.482     698.560    -526.554
  C     -237.853     698.725    -526.430
  N     -238.490     699.342    -527.450
  N     -238.530     698.308    -525.402
  C     -237.768     697.713    -524.454
  C     -236.423     697.475    -524.450
  C     -235.662     697.932    -525.601
  O     -234.471     697.794    -525.784
  N     -236.034     696.805    -523.325
  C     -237.160     696.605    -522.642
  N     -238.254     697.141    -523.291
  O     -239.440     696.823    -516.669
  O     -240.950     694.757    -516.865
  H     -240.834     696.224    -525.082
  H     -239.480     696.565    -515.725
  H     -235.998     698.876    -527.383
  H     -237.256     696.063    -521.707
  H     -240.179     697.809    -523.519
  H     -239.495     694.838    -522.969
  H     -238.023     699.719    -528.258
  H     -241.830     694.569    -522.320
  H     -239.484     699.515    -527.352
  H     -241.899     697.090    -521.004
  H     -241.687     694.902    -519.803
  H     -239.961     694.843    -520.242
  P     -244.013     695.902    -523.038
  C     -244.616     698.118    -521.771
  O     -244.559     696.693    -521.746
  O     -243.917     694.385    -522.547
  O     -244.853     696.033    -524.267
  H     -244.680     693.888    -522.859
  H     -245.000     698.476    -520.839
  H     -245.257     698.435    -522.566
  H     -243.633     698.512    -521.927

 6  7  8  9  10  11  12  13  14  15  26  29  33  34 0
 6-311+G(2d,p)
 ****
 36  38  39  40  41 0
 6-311+G(2d,p)
 ****
 1  2  3  4  5  16  17  18  19  20  21  22  23  24  25 0
 3-21G
 ****
 27  28  30  31  32  35  37  42  43  44  45  46  47 0
 3-21G
 ****
 48  49 0
 3-21G
 ****


