%nproc=1
%NoSave
%Mem=1900MB
#P OB98/GEN NMR

erre ene a

0 1
  C       13.217    -299.447      93.252
  O       13.120    -299.770      94.639
  P       13.508    -301.253      95.117
  C       12.289    -303.477      95.574
  O       12.149    -302.081      95.336
  C       10.926    -304.120      95.863
  O       10.431    -303.758      97.165
  C        9.845    -303.694      94.882
  O       10.014    -304.325      93.627
  C        8.583    -304.084      95.644
  O        8.291    -305.481      95.474
  C        8.984    -303.797      97.109
  N        8.395    -302.574      97.639
  C        6.997    -302.561      97.735
  O        6.337    -303.525      97.343
  N        6.386    -301.446      98.258
  C        7.106    -300.436      98.640
  N        6.447    -299.360      99.152
  C        8.581    -300.408      98.549
  C        9.153    -301.499      98.036
  O       14.493    -301.333      96.235
  O       14.099    -301.913      93.777
  H        7.522    -305.666      96.048
  H       14.770    -302.581      94.023
  H        9.136    -299.545      98.885
  H       10.230    -301.561      97.930
  H        8.675    -304.627      97.758
  H        7.708    -303.525      95.294
  H        9.874    -302.601      94.755
  H       11.049    -305.213      95.825
  H        5.435    -299.399      99.198
  H       12.962    -303.639      96.424
  H        6.919    -298.547      99.526
  H       12.767    -303.943      94.703
  P       10.294    -303.392      92.349
  C        8.906    -301.573      91.131
  O        8.892    -302.772      91.883
  O       10.632    -304.454      91.195
  O       11.410    -302.407      92.526
  H       11.295    -304.075      90.588
  H        7.933    -301.462      90.636
  H        9.692    -301.587      90.365
  H        9.058    -300.721      91.798
  H       12.925    -298.429      93.102
  H       12.572    -300.089      92.690
  H       14.227    -299.581      92.924

 3  4  5  6  7  8  9  10  11  12  13  23  27  28  29  30  32 0
 6-311+G(2d,p)
 ****
 34  35 0
 6-311+G(2d,p)
 ****
 1  2  14  15  16  17  18  19  20  21  22  24  25  26 0
 3-21G
 ****
 31  33  36  37  38  39  40  41  42  43  44  45  46 0
 3-21G
 ****


