%nproc=1
%NoSave
%Mem=1900MB
#P OB98/GEN NMR

erre ene a

0 1
  C      411.519     -76.290     221.674
  O      411.719     -74.938     221.310
  H      411.478     -76.895     220.762
  H      410.580     -76.414     222.219
  H      412.353     -76.643     222.286
  P      411.561     -73.820     222.453
  C      414.057     -73.356     222.931
  O      412.857     -73.976     223.391
  C      414.444     -72.181     223.833
  O      413.474     -71.120     223.715
  C      414.476     -72.529     225.314
  O      415.525     -73.399     225.681
  C      414.362     -71.163     225.972
  O      415.616     -70.506     226.132
  C      413.489     -70.389     224.957
  N      412.144     -70.148     225.463
  C      412.036     -69.197     226.474
  O      413.002     -68.598     226.949
  N      410.775     -68.984     226.958
  C      409.648     -69.651     226.575
  O      408.553     -69.442     227.081
  C      409.829     -70.661     225.521
  C      411.049     -70.860     225.019
  O      410.265     -73.836     223.204
  O      411.838     -72.448     221.680
  H      415.469     -69.750     226.733
  H      411.514     -71.674     222.200
  H      410.678     -68.293     227.685
  H      408.956     -71.212     225.194
  H      411.208     -71.604     224.241
  H      413.943     -69.414     224.736
  H      413.912     -71.236     226.966
  H      413.548     -73.063     225.555
  H      415.414     -71.795     223.497
  H      413.873     -72.985     221.917
  H      414.864     -74.094     222.894
  P      415.546     -74.217     227.054
  C      414.738     -76.590     226.369
  O      414.405     -75.346     226.984
  O      415.686     -73.418     228.311
  O      416.896     -75.086     226.882
  H      417.297     -75.182     227.768
  H      413.888     -77.239     226.394
  H      415.549     -77.044     226.899
  H      415.026     -76.420     225.353

 6  7  8  9  10  11  12  13  14  15  16  26  31  32  33  34  35 0
 6-311+G(2d,p)
 ****
 36  37 0
 6-311+G(2d,p)
 ****
 1  2  3  4  5  17  18  19  20  21  22  23  24  25 0
 3-21G
 ****
 27  28  29  30  38  39  40  41  42  43  44  45 0
 3-21G
 ****


