%nproc=1
%NoSave
%Mem=1900MB
#P OB98/GEN NMR

erre ene a

0 1
  C      320.711    -188.253     269.407
  O      320.732    -189.267     270.430
  P      321.718    -189.088     271.692
  C      319.827    -188.630     273.442
  O      320.999    -188.158     272.784
  C      319.092    -187.461     274.104
  O      318.458    -186.628     273.107
  C      317.970    -187.874     275.045
  O      318.469    -188.335     276.288
  C      317.169    -186.582     275.151
  O      317.751    -185.694     276.122
  C      317.314    -186.002     273.727
  N      316.107    -186.175     272.923
  C      316.002    -185.378     271.789
  O      316.835    -184.522     271.486
  N      314.880    -185.569     271.025
  C      313.846    -186.408     271.315
  O      312.855    -186.525     270.602
  C      313.975    -187.169     272.572
  C      315.079    -187.011     273.308
  O      322.834    -188.099     271.099
  O      322.343    -190.348     272.207
  H      317.232    -184.868     276.092
  H      323.682    -188.249     271.562
  H      314.800    -185.020     270.179
  H      313.165    -187.827     272.848
  H      315.187    -187.566     274.237
  H      317.546    -184.933     273.780
  H      316.134    -186.756     275.454
  H      317.349    -188.644     274.566
  H      319.832    -186.847     274.634
  H      320.116    -189.353     274.215
  H      319.186    -189.132     272.712
  P      318.641    -189.923     276.459
  C      321.237    -189.657     276.605
  O      320.127    -190.247     275.958
  O      317.682    -190.461     275.289
  O      318.284    -190.411     277.828
  H      317.676    -189.860     274.519
  H      321.053    -189.516     277.674
  H      321.453    -188.687     276.143
  H      322.102    -190.310     276.474
  H      320.007    -188.526     268.649
  H      321.685    -188.163     268.974
  H      320.425    -187.317     269.839

 3  4  5  6  7  8  9  10  11  12  13  23  28  29  30  31  32 0
 6-311+G(2d,p)
 ****
 33  34 0
 6-311+G(2d,p)
 ****
 1  2  14  15  16  17  18  19  20  21  22  24  25  26 0
 3-21G
 ****
 27  35  36  37  38  39  40  41  42  43  44  45 0
 3-21G
 ****


