%nproc=1
%NoSave
%Mem=1900MB
#P OB98/GEN NMR

erre ene a

0 1
  C      232.235      57.663    -161.955
  O      232.148      58.449    -160.784
  H      231.695      58.169    -162.760
  H      231.781      56.682    -161.789
  H      233.283      57.544    -162.250
  P      232.790      57.835    -159.447
  C      232.582      55.558    -158.208
  O      232.012      56.467    -159.144
  C      231.482      54.691    -157.603
  O      230.619      55.506    -156.772
  C      230.562      54.046    -158.631
  O      231.133      52.897    -159.233
  C      229.358      53.708    -157.766
  O      229.527      52.458    -157.086
  C      229.316      54.883    -156.770
  N      228.253      55.833    -157.098
  C      226.978      55.478    -156.664
  O      226.737      54.445    -156.043
  N      225.971      56.344    -157.002
  C      226.107      57.472    -157.762
  O      225.152      58.173    -158.075
  C      227.475      57.786    -158.204
  C      228.471      56.961    -157.862
  O      232.274      58.830    -158.305
  O      234.278      57.720    -159.458
  H      233.008      59.398    -158.004
  H      229.682      51.789    -157.783
  H      225.041      56.108    -156.696
  H      227.618      58.673    -158.809
  H      229.487      57.165    -158.188
  H      229.147      54.516    -155.752
  H      228.455      53.628    -158.369
  H      230.261      54.783    -159.387
  H      231.949      53.926    -156.968
  H      233.078      56.116    -157.407
  H      233.329      54.941    -158.721
  P      230.699      52.548    -160.739
  C      228.400      51.896    -161.840
  O      229.156      52.120    -160.660
  O      231.494      51.177    -160.962
  O      231.022      53.635    -161.708
  H      231.642      50.704    -160.124
  H      227.400      51.621    -161.576
  H      228.849      51.107    -162.407
  H      228.381      52.791    -162.427

 6  7  8  9  10  11  12  13  14  15  16  27  31  32  33  34  35 0
 6-311+G(2d,p)
 ****
 36  37 0
 6-311+G(2d,p)
 ****
 1  2  3  4  5  17  18  19  20  21  22  23  24  25 0
 3-21G
 ****
 26  28  29  30  38  39  40  41  42  43  44  45 0
 3-21G
 ****


