%nproc=1
%NoSave
%Mem=1900MB
#P OB98/GEN NMR

erre ene a

0 1
  C     -272.515     913.932    -531.614
  O     -273.418     914.177    -530.539
  P     -273.335     915.569    -529.737
  C     -275.741     916.393    -530.241
  O     -274.827     915.968    -529.258
  C     -277.089     915.679    -530.071
  O     -276.973     914.250    -530.389
  C     -277.596     915.708    -528.638
  O     -278.014     916.965    -528.129
  C     -278.587     914.569    -528.617
  O     -279.863     914.978    -529.130
  C     -277.929     913.557    -529.570
  N     -277.272     912.412    -528.882
  C     -277.810     911.156    -529.185
  O     -278.782     911.011    -529.941
  N     -277.233     910.091    -528.549
  C     -276.175     910.186    -527.638
  O     -275.714     909.191    -527.080
  C     -275.686     911.526    -527.359
  C     -276.248     912.580    -527.990
  O     -272.561     916.640    -530.416
  O     -272.624     915.116    -528.355
  H     -280.453     914.193    -529.050
  H     -271.983     915.818    -528.128
  H     -277.591     909.184    -528.746
  H     -274.877     911.630    -526.662
  H     -275.861     913.586    -527.799
  H     -278.676     913.148    -530.293
  H     -278.744     914.173    -527.603
  H     -276.775     915.405    -527.960
  H     -277.803     916.103    -530.771
  H     -275.341     916.233    -531.245
  H     -275.859     917.489    -530.166
  P     -278.636     917.149    -526.654
  C     -276.803     918.791    -525.770
  O     -278.197     918.602    -526.131
  O     -278.512     915.986    -525.709
  O     -280.189     917.410    -527.009
  H     -280.713     917.032    -526.253
  H     -276.679     919.806    -525.412
  H     -276.179     918.655    -526.680
  H     -276.518     918.098    -525.010
  H     -272.710     912.966    -532.031
  H     -271.509     913.967    -531.250
  H     -272.647     914.679    -532.368

 3  4  5  6  7  8  9  10  11  12  13  23  28  29  30  31  32 0
 6-311+G(2d,p)
 ****
 33  34 0
 6-311+G(2d,p)
 ****
 1  2  14  15  16  17  18  19  20  21  22  24  25  26  27 0
 3-21G
 ****
 35  36  37  38  39  40  41  42  43  44  45 0
 3-21G
 ****


