%nproc=1
%NoSave
%Mem=1900MB
#P OB98/GEN NMR

erre ene a

0 1
  C     -306.209     480.696     519.955
  O     -307.181     481.335     519.150
  H     -305.781     479.864     519.388
  H     -306.661     480.306     520.875
  H     -305.408     481.398     520.203
  P     -308.150     482.417     519.848
  C     -309.142     483.378     517.664
  O     -309.386     482.592     518.838
  C     -310.266     483.208     516.641
  O     -310.172     481.929     515.988
  C     -311.665     483.254     517.246
  O     -312.045     484.488     517.788
  C     -312.497     482.627     516.127
  O     -312.840     483.578     515.122
  C     -311.513     481.585     515.555
  N     -311.857     480.218     515.933
  C     -312.649     479.511     515.027
  O     -313.058     479.995     513.970
  N     -312.977     478.235     515.393
  C     -312.647     477.629     516.580
  O     -313.000     476.487     516.845
  C     -311.859     478.433     517.508
  C     -311.492     479.676     517.152
  O     -307.494     483.705     520.254
  O     -308.796     481.611     521.075
  H     -313.194     483.071     514.357
  H     -309.215     482.231     521.722
  H     -313.531     477.704     514.742
  H     -311.585     477.985     518.461
  H     -310.908     480.290     517.828
  H     -311.498     481.634     514.453
  H     -313.422     482.197     516.503
  H     -311.693     482.529     518.084
  H     -310.151     483.991     515.878
  H     -308.198     483.031     517.231
  H     -309.034     484.433     517.946
  P     -312.335     484.729     519.344
  C     -310.900     486.919     519.241
  O     -312.092     486.285     519.674
  O     -311.775     483.715     520.284
  O     -313.950     484.614     519.398
  H     -314.173     484.207     520.261
  H     -310.910     487.944     519.547
  H     -310.835     486.866     518.174
  H     -310.056     486.426     519.675

 6  7  8  9  10  11  12  13  14  15  16  26  31  32  33  34  35 0
 6-311+G(2d,p)
 ****
 36  37 0
 6-311+G(2d,p)
 ****
 1  2  3  4  5  17  18  19  20  21  22  23  24  25 0
 3-21G
 ****
 27  28  29  30  38  39  40  41  42  43  44  45 0
 3-21G
 ****


