%nproc=1
%NoSave
%Mem=1900MB
#P OB98/GEN NMR

erre ene a

0 1
  C     -894.905     490.028     374.221
  O     -895.905     489.662     375.150
  H     -895.295     490.833     373.593
  H     -894.655     489.173     373.578
  H     -894.005     490.389     374.725
  P     -895.515     488.716     376.372
  C     -896.375     486.474     375.434
  O     -895.235     487.251     375.753
  C     -895.945     485.112     374.866
  O     -895.255     484.356     375.933
  C     -897.115     484.244     374.348
  O     -896.665     483.484     373.208
  C     -897.355     483.338     375.532
  O     -898.065     482.178     375.183
  C     -895.925     483.095     376.010
  N     -895.905     482.534     377.364
  C     -895.975     481.141     377.475
  O     -896.065     480.386     376.497
  N     -895.995     480.664     378.749
  C     -896.075     481.403     379.905
  O     -896.195     480.882     380.994
  C     -896.055     482.857     379.710
  C     -895.965     483.345     378.473
  O     -896.465     488.717     377.539
  O     -894.035     489.191     376.798
  H     -897.665     481.765     374.382
  H     -893.835     488.911     377.709
  H     -896.045     479.640     378.848
  H     -896.115     483.480     380.591
  H     -895.945     484.419     378.294
  H     -895.395     482.396     375.323
  H     -897.945     483.857     376.303
  H     -897.985     484.841     374.073
  H     -895.205     485.286     374.076
  H     -896.975     487.021     374.686
  H     -896.985     486.322     376.340
  P     -897.555     483.333     371.890
  C     -898.995     481.440     372.846
  O     -899.005     482.750     372.249
  O     -896.875     482.625     370.763
  O     -897.865     484.859     371.447
  H     -897.725     484.955     370.495
  H     -900.000     481.133     373.050
  H     -898.438     481.468     373.759
  H     -898.540     480.744     372.172

 6  7  8  9  10  11  12  13  14  15  16  26  31  32  33  34  35 0
 6-311+G(2d,p)
 ****
 36  37 0
 6-311+G(2d,p)
 ****
 1  2  3  4  5  17  18  19  20  21  22  23  24  25 0
 3-21G
 ****
 27  28  29  30  38  39  40  41  42  43  44  45 0
 3-21G
 ****


