%nproc=1
%NoSave
%Mem=1900MB
#P OB98/GEN NMR

erre ene a

0 1
  C      402.383     546.392    -202.136
  O      401.548     546.149    -203.249
  H      403.083     545.568    -201.999
  H      402.951     547.309    -202.317
  H      401.778     546.527    -201.231
  P      400.644     544.819    -203.196
  C      401.311     544.118    -205.611
  O      400.270     544.506    -204.725
  C      400.731     543.905    -207.005
  O      399.766     542.832    -206.987
  C      400.001     545.120    -207.559
  O      400.880     546.074    -208.127
  C      399.133     544.465    -208.626
  O      399.927     544.163    -209.780
  C      398.690     543.172    -207.918
  N      394.776     540.634    -205.822
  C      395.905     540.205    -206.436
  N      396.904     540.948    -206.952
  C      396.669     542.258    -206.769
  C      395.574     542.836    -206.149
  C      394.581     541.961    -205.662
  N      393.418     542.393    -205.060
  N      395.676     544.217    -206.169
  C      396.829     544.454    -206.775
  N      397.446     543.302    -207.182
  O      399.256     545.328    -202.580
  O      401.227     543.665    -202.453
  H      400.324     545.000    -210.090
  H      398.709     544.570    -202.297
  H      396.004     539.129    -206.536
  H      397.245     545.436    -206.947
  H      398.575     542.327    -208.615
  H      398.320     545.110    -208.955
  H      399.353     545.576    -206.803
  H      401.549     543.593    -207.674
  H      401.756     543.178    -205.255
  H      392.713     541.696    -204.886
  H      393.207     543.379    -205.072
  H      402.078     544.891    -205.638
  P      400.536     547.636    -207.903
  C      400.482     548.306    -210.402
  O      401.152     548.420    -209.160
  O      401.507     548.035    -206.696
  O      399.102     547.906    -207.596
  H      401.104     548.726    -206.133
  H      401.003     548.877    -211.142
  H      399.483     548.676    -210.304
  H      400.454     547.278    -210.699

 6  7  8  9  10  11  12  13  14  15  25  28  32  33  34  35 0
 6-311+G(2d,p)
 ****
 36  39  40 0
 6-311+G(2d,p)
 ****
 1  2  3  4  5  16  17  18  19  20  21  22  23  24 0
 3-21G
 ****
 26  27  29  30  31  37  38  41  42  43  44  45  46  47 0
 3-21G
 ****
 48 0
 3-21G
 ****


