%nproc=1
%NoSave
%Mem=1900MB
#P OB98/GEN NMR

erre ene a

0 1
  C        3.900    -182.611     -21.474
  O        4.052    -183.354     -20.254
  P        3.392    -182.784     -18.902
  C        2.766    -185.209     -18.147
  O        3.354    -183.959     -17.813
  C        3.619    -186.358     -17.601
  O        4.717    -186.644     -18.498
  C        4.272    -186.070     -16.256
  O        3.350    -186.178     -15.184
  C        5.368    -187.127     -16.221
  O        4.848    -188.393     -15.778
  C        5.787    -187.202     -17.705
  N        7.052    -186.524     -17.965
  C        7.517    -186.566     -19.276
  O        6.948    -187.184     -20.174
  N        8.687    -185.897     -19.515
  C        9.456    -185.264     -18.580
  O       10.505    -184.698     -18.855
  C        8.954    -185.323     -17.199
  C        7.799    -185.945     -16.959
  O        1.846    -182.663     -19.313
  O        3.921    -181.470     -18.430
  H        4.618    -188.286     -14.833
  H        1.426    -181.953     -18.789
  H        9.028    -185.888     -20.463
  H        9.546    -184.855     -16.424
  H        7.415    -185.997     -15.945
  H        5.878    -188.247     -18.017
  H        6.185    -186.862     -15.543
  H        4.735    -185.076     -16.270
  H        2.986    -187.252     -17.539
  H        2.702    -185.298     -19.235
  H        1.754    -185.249     -17.729
  P        2.837    -184.801     -14.534
  C        0.651    -185.806     -13.509
  O        1.925    -185.238     -13.290
  O        1.806    -184.303     -15.652
  O        3.943    -183.846     -14.237
  H        1.355    -185.044     -16.092
  H        0.629    -186.406     -14.422
  H       -0.093    -185.006     -13.578
  H        0.403    -186.447     -12.659
  H        4.396    -183.127     -22.270
  H        4.331    -181.639     -21.356
  H        2.860    -182.514     -21.705

 3  4  5  6  7  8  9  10  11  12  13  23  28  29  30  31  32 0
 6-311+G(2d,p)
 ****
 33  34 0
 6-311+G(2d,p)
 ****
 1  2  14  15  16  17  18  19  20  21  22  24  25  26 0
 3-21G
 ****
 27  35  36  37  38  39  40  41  42  43  44  45 0
 3-21G
 ****


