%nproc=1
%NoSave
%Mem=1900MB
#P OB98/GEN NMR

erre ene a

0 1
  C      -38.474     228.444    -897.593
  O      -37.722     227.316    -897.193
  H      -38.853     228.277    -898.593
  H      -37.817     229.329    -897.603
  H      -39.318     228.627    -896.913
  P      -37.406     227.164    -895.633
  C      -35.605     229.032    -895.553
  O      -35.884     227.643    -895.423
  C      -34.080     229.269    -895.473
  O      -33.654     229.085    -894.063
  C      -33.241     228.320    -896.353
  O      -32.116     229.057    -896.873
  C      -32.716     227.313    -895.343
  O      -31.531     226.673    -895.783
  C      -32.530     228.203    -894.113
  N      -29.538     224.936    -891.743
  C      -29.299     225.713    -892.853
  N      -28.119     225.559    -893.483
  N      -30.168     226.575    -893.323
  C      -31.313     226.630    -892.603
  C      -31.672     225.931    -891.473
  C      -30.701     224.963    -890.973
  O      -30.865     224.231    -890.003
  N      -32.935     226.236    -891.053
  C      -33.367     227.141    -891.963
  N      -32.418     227.395    -892.893
  O      -37.321     225.567    -895.433
  O      -38.404     227.789    -894.713
  H      -30.944     227.338    -896.203
  H      -38.191     225.244    -895.153
  H      -28.842     224.281    -891.433
  H      -34.364     227.590    -891.943
  H      -31.597     228.819    -894.173
  H      -33.483     226.545    -895.163
  H      -27.373     224.942    -893.163
  H      -33.789     227.874    -897.163
  H      -27.926     226.144    -894.273
  H      -33.884     230.343    -895.723
  H      -36.099     229.582    -894.743
  H      -35.982     229.392    -896.513
  P      -32.209     229.612    -898.373
  C      -32.247     227.165    -899.283
  O      -31.663     228.474    -899.363
  O      -31.050     230.722    -898.433
  O      -33.556     230.197    -898.713
  H      -31.335     231.455    -899.033
  H      -31.781     226.522    -900.000
  H      -33.295     227.229    -899.488
  H      -32.100     226.768    -898.300

 6  7  8  9  10  11  12  13  14  15  26  29  33  34 0
 6-311+G(2d,p)
 ****
 36  38  39  40  41 0
 6-311+G(2d,p)
 ****
 1  2  3  4  5  16  17  18  19  20  21  22  23  24  25 0
 3-21G
 ****
 27  28  30  31  32  35  37  42  43  44  45  46  47 0
 3-21G
 ****
 48  49 0
 3-21G
 ****


