%nproc=1
%NoSave
%Mem=1900MB
#P OB98/GEN NMR

erre ene a

0 1
  C      146.457     625.973     461.847
  O      146.559     627.106     460.995
  P      147.825     628.103     461.085
  C      148.094     628.604     458.561
  O      148.600     627.904     459.696
  C      147.863     627.628     457.410
  O      146.867     626.642     457.792
  C      147.337     628.268     456.130
  O      148.374     628.945     455.436
  C      146.751     627.050     455.421
  O      147.798     626.301     454.780
  C      146.167     626.240     456.598
  N      144.721     626.422     456.744
  C      143.942     626.113     455.628
  O      144.454     625.705     454.580
  N      142.575     626.240     455.722
  C      142.035     626.667     456.829
  N      140.674     626.712     456.894
  C      142.832     627.052     458.015
  C      144.152     626.900     457.900
  O      148.673     627.927     462.299
  O      147.194     629.560     460.931
  H      148.154     626.870     454.072
  H      146.916     629.966     461.792
  H      142.342     627.403     458.912
  H      144.807     627.143     458.729
  H      146.374     625.168     456.462
  H      146.008     627.312     454.655
  H      146.532     628.982     456.361
  H      148.808     627.093     457.209
  H      140.177     626.266     456.134
  H      148.829     629.354     458.258
  H      140.196     626.736     457.785
  H      147.157     629.111     458.845
  P      148.280     630.547     455.351
  C      150.768     631.087     455.856
  O      149.431     631.107     456.318
  O      146.913     630.878     456.119
  O      148.295     631.091     453.952
  H      146.197     631.046     455.473
  H      151.381     631.707     456.515
  H      150.834     631.485     454.835
  H      151.151     630.060     455.877
  H      145.552     625.445     461.632
  H      146.448     626.294     462.868
  H      147.294     625.327     461.683

 3  4  5  6  7  8  9  10  11  12  13  23  27  28  29  30  32 0
 6-311+G(2d,p)
 ****
 34  35 0
 6-311+G(2d,p)
 ****
 1  2  14  15  16  17  18  19  20  21  22  24  25  26 0
 3-21G
 ****
 31  33  36  37  38  39  40  41  42  43  44  45  46 0
 3-21G
 ****


