%nproc=1
%NoSave
%Mem=1900MB
#P OB98/GEN NMR

erre ene a

0 1
  C      298.448     202.163     216.278
  O      297.245     202.378     216.982
  H      298.204     201.790     215.280
  H      299.050     201.412     216.795
  H      299.019     203.087     216.177
  P      297.286     203.218     218.344
  C      295.103     204.475     217.775
  O      296.487     204.582     218.081
  C      294.335     205.700     218.285
  O      294.363     205.702     219.735
  C      294.991     207.006     217.824
  O      294.049     208.069     217.710
  C      295.951     207.317     218.962
  O      296.302     208.700     219.038
  C      295.164     206.814     220.169
  N      296.453     207.573     225.042
  C      295.664     208.348     224.217
  N      295.146     209.474     224.765
  N      295.421     208.060     222.965
  C      296.060     206.948     222.533
  C      296.885     206.111     223.248
  C      297.120     206.421     224.644
  O      297.828     205.781     225.413
  N      297.360     205.085     222.467
  C      296.825     205.304     221.282
  N      296.008     206.409     221.277
  O      298.807     203.721     218.430
  O      296.884     202.471     219.579
  H      295.567     209.162     219.484
  H      299.041     203.936     219.350
  H      296.583     207.824     226.006
  H      296.982     204.688     220.404
  H      294.484     207.591     220.541
  H      296.876     206.760     218.793
  H      295.468     209.828     225.654
  H      295.523     206.899     216.883
  H      294.837     210.197     224.109
  H      293.282     205.633     217.987
  H      294.741     203.564     218.258
  H      294.962     204.349     216.701
  P      293.845     208.762     216.281
  C      291.256     208.379     215.893
  O      292.593     208.110     215.535
  O      295.100     208.256     215.433
  O      293.762     210.255     216.325
  H      295.677     209.007     215.194
  H      290.598     207.829     215.253
  H      291.063     209.426     215.789
  H      291.093     208.086     216.909

 6  7  8  9  10  11  12  13  14  15  26  29  33  34 0
 6-311+G(2d,p)
 ****
 36  38  39  40  41 0
 6-311+G(2d,p)
 ****
 1  2  3  4  5  16  17  18  19  20  21  22  23  24  25 0
 3-21G
 ****
 27  28  30  31  32  35  37  42  43  44  45  46  47 0
 3-21G
 ****
 48  49 0
 3-21G
 ****


