%nproc=1
%NoSave
%Mem=1900MB
#P OB98/GEN NMR

erre ene a

0 1
  C     -113.588     364.852     822.309
  O     -113.891     364.816     823.718
  P     -112.795     364.392     824.809
  C     -113.334     366.255     826.514
  O     -113.317     364.858     826.266
  C     -113.897     366.582     827.905
  O     -115.339     366.441     827.904
  C     -113.390     365.684     829.017
  O     -112.089     366.084     829.419
  C     -114.469     365.865     830.083
  O     -114.267     367.081     830.810
  C     -115.733     365.968     829.220
  N     -118.173     362.274     831.797
  C     -117.596     363.424     832.194
  N     -116.968     364.357     831.444
  C     -116.972     364.014     830.146
  C     -117.526     362.862     829.592
  C     -118.141     361.951     830.474
  N     -118.706     360.776     830.067
  N     -117.315     362.838     828.224
  C     -116.690     363.970     827.959
  N     -116.461     364.709     829.090
  O     -111.402     364.840     824.488
  O     -112.874     362.800     824.880
  H     -115.067     367.267     831.326
  H     -112.004     362.438     825.145
  H     -117.645     363.632     833.263
  H     -116.368     364.284     826.973
  H     -116.442     366.706     829.612
  H     -114.495     365.045     830.810
  H     -113.381     364.638     828.689
  H     -113.676     367.636     828.113
  H     -113.951     366.742     825.747
  H     -119.105     360.164     830.766
  H     -118.647     360.516     829.087
  H     -112.319     366.648     826.429
  P     -110.805     365.198     829.032
  C     -109.549     367.329     828.359
  O     -109.521     366.148     829.130
  O     -110.924     364.435     827.741
  O     -110.620     364.202     830.270
  H     -110.241     363.368     829.960
  H     -109.273     367.092     827.328
  H     -108.792     368.035     828.771
  H     -110.524     367.806     828.387
  H     -114.457     365.159     821.765
  H     -113.290     363.877     821.983
  H     -112.793     365.546     822.133

 3  4  5  6  7  8  9  10  11  12  22  25  29  30  31  32 0
 6-311+G(2d,p)
 ****
 33  36  37 0
 6-311+G(2d,p)
 ****
 1  2  13  14  15  16  17  18  19  20  21  23  24  26 0
 3-21G
 ****
 27  28  34  35  38  39  40  41  42  43  44  45  46  47  48 0
 3-21G
 ****


