%nproc=1
%NoSave
%Mem=1900MB
#P OB98/GEN NMR

erre ene a

0 1
  C       24.248      61.597      68.366
  O       25.060      60.685      69.093
  P       24.378      59.890      70.312
  C       25.366      61.557      72.042
  O       24.195      60.971      71.483
  C       24.996      62.675      73.010
  O       24.456      63.800      72.289
  C       23.937      62.299      74.036
  O       24.484      61.597      75.139
  C       23.455      63.674      74.469
  O       24.386      64.245      75.407
  C       23.488      64.455      73.151
  N       18.766      66.407      73.322
  C       19.805      66.490      74.179
  N       21.028      65.932      74.068
  C       21.114      65.194      72.948
  C       20.125      64.986      72.001
  C       18.903      65.643      72.212
  N       17.854      65.581      71.323
  N       20.584      64.167      70.994
  C       21.829      63.892      71.319
  N       22.199      64.498      72.487
  O       25.568      58.963      70.848
  O       23.167      59.100      69.951
  H       24.455      63.619      76.153
  H       25.202      58.193      71.324
  H       19.636      67.092      75.068
  H       22.498      63.271      70.738
  H       23.823      65.489      73.286
  H       22.479      63.647      74.963
  H       23.109      61.751      73.570
  H       25.916      63.006      73.511
  H       25.978      61.970      71.235
  H       17.087      66.222      71.452
  H       18.029      65.179      70.409
  H       25.942      60.781      72.556
  P       23.680      60.300      75.642
  C       22.386      61.817      77.307
  O       22.317      60.863      76.265
  O       24.523      59.823      76.915
  O       23.547      59.229      74.613
  H       24.398      58.867      77.067
  H       21.415      62.312      77.395
  H       23.146      62.575      77.099
  H       22.613      61.317      78.252
  H       24.828      62.051      67.590
  H       23.883      62.355      69.027
  H       23.422      61.072      67.933

 3  4  5  6  7  8  9  10  11  12  22  25  29  30  31  32 0
 6-311+G(2d,p)
 ****
 33  36  37 0
 6-311+G(2d,p)
 ****
 1  2  13  14  15  16  17  18  19  20  21  23  24  26 0
 3-21G
 ****
 27  28  34  35  38  39  40  41  42  43  44  45  46  47  48 0
 3-21G
 ****


