%nproc=1
%NoSave
%Mem=1900MB
#P OB98/GEN NMR

erre ene a

0 1
  C     -241.231     147.414    -218.215
  O     -241.521     146.245    -218.987
  P     -240.560     145.950    -220.235
  C     -242.433     144.309    -220.979
  O     -241.037     144.580    -220.921
  C     -242.719     143.270    -222.060
  O     -242.064     143.596    -223.307
  C     -242.225     141.873    -221.704
  O     -243.072     141.262    -220.744
  C     -242.237     141.206    -223.075
  O     -243.571     140.803    -223.428
  C     -241.782     142.353    -223.992
  N     -238.402     141.773    -227.789
  C     -239.755     141.780    -227.778
  N     -240.581     141.937    -226.722
  C     -239.880     142.115    -225.590
  C     -238.502     142.137    -225.448
  C     -237.747     141.951    -226.618
  N     -236.371     141.930    -226.629
  N     -238.151     142.340    -224.130
  C     -239.298     142.416    -223.484
  N     -240.370     142.297    -224.325
  O     -239.168     145.564    -219.546
  O     -240.413     147.108    -221.167
  H     -243.806     140.046    -222.855
  H     -238.520     146.281    -219.676
  H     -240.233     141.636    -228.741
  H     -239.400     142.554    -222.415
  H     -242.336     142.370    -224.938
  H     -241.603     140.315    -223.125
  H     -241.200     141.921    -221.318
  H     -243.803     143.247    -222.233
  H     -242.986     145.226    -221.191
  H     -235.907     141.713    -227.497
  H     -235.873     141.975    -225.752
  H     -242.764     143.961    -219.997
  P     -242.492     141.050    -219.265
  C     -243.606     138.737    -219.165
  O     -243.536     140.030    -218.591
  O     -242.859     142.439    -218.569
  O     -241.057     140.645    -219.202
  H     -243.773     142.711    -218.768
  H     -244.323     138.142    -218.594
  H     -242.627     138.251    -219.126
  H     -243.950     138.807    -220.200
  H     -241.939     147.499    -217.417
  H     -241.294     148.279    -218.841
  H     -240.244     147.338    -217.810

 3  4  5  6  7  8  9  10  11  12  22  25  29  30  31  32 0
 6-311+G(2d,p)
 ****
 33  36  37 0
 6-311+G(2d,p)
 ****
 1  2  13  14  15  16  17  18  19  20  21  23  24  26 0
 3-21G
 ****
 27  28  34  35  38  39  40  41  42  43  44  45  46  47  48 0
 3-21G
 ****


