%nproc=1
%NoSave
%Mem=1900MB
#P OB98/GEN NMR

erre ene a

0 1
  C     -205.348     101.941      64.880
  O     -204.229     102.631      64.364
  H     -205.767     102.525      65.704
  H     -205.046     100.963      65.264
  H     -206.116     101.817      64.112
  P     -203.501     102.057      63.056
  C     -201.195     101.579      64.102
  O     -202.386     101.022      63.562
  C     -200.057     100.567      64.003
  O     -198.854     101.108      64.591
  C     -200.328      99.260      64.740
  O     -201.232      98.450      64.014
  C     -198.915      98.710      64.860
  O     -198.491      98.103      63.629
  C     -198.103      99.998      65.137
  N     -197.824     100.198      66.561
  C     -197.244      99.125      67.228
  O     -196.974      98.057      66.683
  N     -197.023      99.306      68.569
  C     -197.404     100.395      69.299
  O     -197.388     100.424      70.527
  C     -197.942     101.525      68.528
  C     -198.140     101.372      67.217
  O     -203.020     103.078      62.081
  O     -204.607     101.098      62.402
  H     -205.034     101.562      61.656
  H     -199.114      97.373      63.451
  H     -196.647      98.516      69.073
  H     -198.197     102.432      69.062
  H     -198.564     102.182      66.633
  H     -197.145      99.969      64.603
  H     -198.829      97.949      65.638
  H     -200.712      99.468      65.746
  H     -199.858     100.379      62.939
  H     -201.372     101.827      65.154
  H     -200.949     102.496      63.556
  P     -201.961      97.203      64.701
  C     -201.030      95.420      63.112
  O     -201.061      95.901      64.449
  O     -203.401      97.038      64.345
  O     -201.788      97.462      66.273
  H     -202.664      97.420      66.701
  H     -200.404      94.554      63.059
  H     -200.642      96.181      62.468
  H     -202.021      95.163      62.802

 6  7  8  9  10  11  12  13  14  15  16  27  31  32  33  34  35 0
 6-311+G(2d,p)
 ****
 36  37 0
 6-311+G(2d,p)
 ****
 1  2  3  4  5  17  18  19  20  21  22  23  24  25 0
 3-21G
 ****
 26  28  29  30  38  39  40  41  42  43  44  45 0
 3-21G
 ****


