%nproc=1
%NoSave
%Mem=1900MB
#P OB98/GEN NMR

erre ene a

0 1
  C        2.377    -207.171     409.115
  O        2.268    -207.038     410.538
  P        3.539    -206.487     411.340
  C        4.251    -208.840     412.192
  O        3.865    -207.517     412.526
  C        4.454    -209.671     413.463
  O        5.520    -209.145     414.282
  C        3.224    -209.724     414.361
  O        2.296    -210.713     413.929
  C        3.845    -210.141     415.686
  O        4.080    -211.565     415.690
  C        5.179    -209.381     415.671
  N        6.148    -207.042     420.054
  C        6.358    -208.357     419.679
  N        6.916    -209.164     420.606
  N        6.052    -208.832     418.504
  C        5.518    -207.908     417.671
  C        5.260    -206.581     417.924
  C        5.590    -206.066     419.236
  O        5.419    -204.916     419.627
  N        4.708    -205.962     416.836
  C        4.647    -206.904     415.915
  N        5.112    -208.111     416.380
  O        2.944    -205.222     412.122
  O        4.694    -206.105     410.474
  H        4.758    -211.738     415.009
  H        3.649    -204.569     412.282
  H        6.402    -206.725     420.974
  H        4.280    -206.767     414.906
  H        5.995    -209.957     416.119
  H        3.196    -209.927     416.537
  H        7.227    -208.852     421.516
  H        2.758    -208.733     414.456
  H        7.109    -210.122     420.342
  H        4.721    -210.694     413.162
  H        5.173    -208.832     411.604
  H        3.488    -209.280     411.542
  P        1.241    -210.301     412.792
  C       -0.730    -209.971     414.447
  O       -0.201    -210.703     413.360
  O        1.522    -211.385     411.645
  O        1.383    -208.909     412.283
  H        1.341    -210.994     410.770
  H       -1.773    -210.269     414.593
  H       -0.697    -208.898     414.250
  H       -0.172    -210.198     415.363
  H        1.456    -207.548     408.720
  H        3.170    -207.850     408.880
  H        2.586    -206.215     408.682

 3  4  5  6  7  8  9  10  11  12  23  26  30  31 0
 6-311+G(2d,p)
 ****
 33  35  36  37  38 0
 6-311+G(2d,p)
 ****
 1  2  13  14  15  16  17  18  19  20  21  22  24  25 0
 3-21G
 ****
 27  28  29  32  34  39  40  41  42  43  44  45  46  47  48  49 0
 3-21G
 ****


