%nproc=1
%NoSave
%Mem=1900MB
#P OB98/GEN NMR

erre ene a

0 1
  C     -575.575      19.605    -974.148
  O     -575.301      20.989    -974.187
  H     -576.415      19.426    -973.471
  H     -574.704      19.045    -973.785
  H     -575.847      19.255    -975.154
  P     -574.071      21.460    -975.103
  C     -575.179      22.332    -977.249
  O     -574.580      21.217    -976.612
  C     -576.690      22.106    -977.405
  O     -577.263      21.934    -976.070
  C     -577.430      23.271    -978.067
  O     -578.454      22.769    -978.921
  C     -578.049      24.018    -976.890
  O     -579.205      24.769    -977.287
  C     -578.335      22.870    -975.913
  N     -581.483      24.069    -972.081
  C     -581.696      23.500    -973.277
  N     -580.804      23.202    -974.247
  C     -579.542      23.507    -973.833
  C     -579.169      24.101    -972.645
  C     -580.207      24.388    -971.744
  N     -579.996      25.000    -970.519
  N     -577.802      24.284    -972.621
  C     -577.368      23.828    -973.768
  N     -578.382      23.355    -974.543
  O     -572.748      20.851    -974.766
  O     -574.149      23.048    -974.961
  H     -579.796      24.179    -977.778
  H     -575.068      23.374    -975.036
  H     -582.742      23.255    -973.513
  H     -576.317      23.822    -974.089
  H     -579.296      22.381    -976.121
  H     -577.312      24.720    -976.471
  H     -576.751      23.922    -978.646
  H     -576.864      21.165    -977.948
  H     -574.737      22.478    -978.250
  H     -580.786      25.154    -969.912
  H     -579.052      25.221    -970.240
  H     -574.981      23.222    -976.662
  P     -578.129      22.573    -980.473
  C     -579.125      20.195    -980.729
  O     -577.944      21.002    -980.774
  O     -577.083      23.474    -981.045
  O     -579.558      22.883    -981.156
  H     -579.396      23.361    -982.013
  H     -578.871      19.178    -980.945
  H     -579.827      20.549    -981.455
  H     -579.561      20.254    -979.753

 6  7  8  9  10  11  12  13  14  15  25  28  32  33  34  35 0
 6-311+G(2d,p)
 ****
 36  39  40 0
 6-311+G(2d,p)
 ****
 1  2  3  4  5  16  17  18  19  20  21  22  23  24 0
 3-21G
 ****
 26  27  29  30  31  37  38  41  42  43  44  45  46  47 0
 3-21G
 ****
 48 0
 3-21G
 ****


