%nproc=1
%NoSave
%Mem=1900MB
#P OB98/GEN NMR

erre ene a

0 1
  C       96.005    -317.558    -285.166
  O       96.245    -316.678    -286.239
  H       96.005    -318.584    -285.546
  H       95.024    -317.352    -284.724
  H       96.785    -317.463    -284.401
  P       96.488    -315.130    -285.865
  C       98.338    -314.985    -287.678
  O       97.993    -314.785    -286.318
  C       99.647    -315.778    -287.779
  O       99.408    -317.167    -287.423
  C      100.262    -315.795    -289.168
  O      101.030    -314.623    -289.423
  C      101.152    -317.022    -289.070
  O      102.344    -316.706    -288.319
  C      100.266    -317.992    -288.272
  N       98.100    -322.562    -288.664
  C       98.901    -322.037    -287.666
  N       99.176    -322.860    -286.627
  N       99.400    -320.829    -287.685
  C       99.049    -320.123    -288.788
  C       98.261    -320.531    -289.849
  C       97.712    -321.866    -289.805
  O       96.980    -322.371    -290.653
  N       98.129    -319.540    -290.786
  C       98.845    -318.535    -290.299
  N       99.434    -318.850    -289.096
  O       96.583    -315.149    -284.265
  O       95.435    -314.182    -286.333
  H      102.757    -315.940    -288.757
  H       96.176    -314.336    -283.913
  H       97.757    -323.503    -288.606
  H       98.969    -317.580    -290.791
  H      100.850    -318.645    -287.613
  H      101.484    -317.393    -290.043
  H       98.870    -323.816    -286.573
  H       99.504    -315.958    -289.957
  H       99.734    -322.490    -285.864
  H      100.348    -315.369    -287.047
  H       98.476    -314.011    -288.161
  H       97.530    -315.522    -288.180
  P      100.291    -313.376    -290.113
  C      101.423    -311.429    -288.821
  O      100.251    -312.219    -289.002
  O       98.756    -313.857    -290.190
  O      100.822    -312.984    -291.450
  H       98.292    -313.376    -290.897
  H      101.249    -310.704    -288.053
  H      101.661    -310.929    -289.737
  H      102.239    -312.061    -288.537

 6  7  8  9  10  11  12  13  14  15  26  29  33  34 0
 6-311+G(2d,p)
 ****
 36  38  39  40  41 0
 6-311+G(2d,p)
 ****
 1  2  3  4  5  16  17  18  19  20  21  22  23  24  25 0
 3-21G
 ****
 27  28  30  31  32  35  37  42  43  44  45  46  47 0
 3-21G
 ****
 48  49 0
 3-21G
 ****


