%nproc=1
%NoSave
%Mem=1900MB
#P OB98/GEN NMR

erre ene a

0 1
  C     -210.149      58.612    -220.839
  O     -209.414      59.062    -219.723
  H     -210.321      59.458    -221.508
  H     -211.116      58.222    -220.509
  H     -209.609      57.835    -221.387
  P     -208.651      57.986    -218.818
  C     -206.414      58.228    -220.081
  O     -207.469      57.353    -219.702
  C     -205.113      57.470    -220.347
  O     -204.617      56.886    -219.123
  C     -205.305      56.309    -221.323
  O     -205.258      56.655    -222.694
  C     -204.144      55.393    -220.949
  O     -202.944      55.779    -221.639
  C     -203.997      55.628    -219.444
  N     -203.401      51.035    -217.291
  C     -202.533      51.731    -218.108
  N     -201.387      51.096    -218.440
  N     -202.780      52.928    -218.569
  C     -204.005      53.397    -218.234
  C     -204.956      52.793    -217.442
  C     -204.649      51.489    -216.891
  O     -205.387      50.828    -216.168
  N     -206.079      53.576    -217.319
  C     -205.836      54.613    -218.095
  N     -204.580      54.562    -218.651
  O     -209.694      56.771    -218.718
  O     -208.248      58.463    -217.457
  H     -202.200      55.269    -221.270
  H     -209.539      56.268    -217.899
  H     -203.146      50.127    -216.943
  H     -206.521      55.437    -218.267
  H     -202.943      55.708    -219.152
  H     -204.344      54.353    -221.223
  H     -201.206      50.132    -218.205
  H     -206.241      55.782    -221.108
  H     -200.856      51.453    -219.237
  H     -204.352      58.175    -220.703
  H     -206.276      58.929    -219.257
  H     -206.703      58.812    -220.959
  P     -205.942      55.703    -223.785
  C     -208.041      56.948    -224.687
  O     -207.512      56.021    -223.765
  O     -205.837      54.257    -223.109
  O     -205.307      55.734    -225.132
  H     -205.055      53.783    -223.448
  H     -209.096      57.040    -224.535
  H     -207.852      56.607    -225.684
  H     -207.576      57.901    -224.542

 6  7  8  9  10  11  12  13  14  15  26  29  33  34 0
 6-311+G(2d,p)
 ****
 36  38  39  40  41 0
 6-311+G(2d,p)
 ****
 1  2  3  4  5  16  17  18  19  20  21  22  23  24  25 0
 3-21G
 ****
 27  28  30  31  32  35  37  42  43  44  45  46  47 0
 3-21G
 ****
 48  49 0
 3-21G
 ****


