%nproc=1
%NoSave
%Mem=1900MB
#P OB98/GEN NMR

erre ene a

0 1
  C      459.561     494.066    -892.030
  O      460.590     493.977    -891.070
  H      459.163     493.064    -892.220
  H      459.963     494.464    -892.970
  H      458.752     494.710    -891.670
  P      461.295     495.349    -890.640
  C      462.839     496.965    -891.970
  O      462.468     495.612    -891.720
  C      463.122     497.124    -893.470
  O      461.987     496.675    -894.240
  C      463.361     498.573    -893.900
  O      464.670     499.031    -893.580
  C      463.105     498.480    -895.390
  O      464.256     498.029    -896.110
  C      461.960     497.432    -895.480
  N      458.932     499.706    -898.890
  C      460.145     499.128    -899.000
  N      460.898     498.531    -898.050
  C      460.232     498.550    -896.870
  C      458.994     499.091    -896.590
  C      458.323     499.713    -897.670
  N      457.112     500.323    -897.550
  N      458.668     498.952    -895.260
  C      459.700     498.318    -894.740
  N      460.676     498.047    -895.670
  O      462.103     494.944    -889.310
  O      460.374     496.498    -890.400
  H      463.962     497.899    -897.030
  H      461.601     495.223    -888.520
  H      460.588     499.160    -900.000
  H      459.795     498.024    -893.690
  H      462.122     496.729    -896.300
  H      462.815     499.458    -895.800
  H      462.591     499.227    -893.440
  H      464.005     496.482    -893.730
  H      463.747     497.215    -891.410
  H      462.025     497.627    -891.670
  H      456.710     500.798    -898.360
  H      456.696     500.434    -896.630
  P      465.015     500.566    -893.880
  C      465.311     501.861    -896.120
  O      465.518     500.663    -895.380
  O      466.334     500.832    -893.010
  O      463.907     501.536    -893.530
  H      466.325     501.746    -892.670
  H      465.712     501.746    -897.105
  H      465.803     502.674    -895.628
  H      464.262     502.064    -896.184

 6  7  8  9  10  11  12  13  14  15  25  28  32  33  34  35 0
 6-311+G(2d,p)
 ****
 36  37  40 0
 6-311+G(2d,p)
 ****
 1  2  3  4  5  16  17  18  19  20  21  22  23  24 0
 3-21G
 ****
 26  27  29  30  31  38  39 41  42  43  44  45  46  47  48 0
 3-21G
 ****


