%nproc=1
%NoSave
%Mem=1900MB
#P OB98/GEN NMR

erre ene a

0 1
  C      -22.386      31.872     -58.546
  O      -22.191      31.650     -57.163
  H      -23.082      31.120     -58.928
  H      -21.437      31.777     -59.080
  H      -22.812      32.865     -58.714
  P      -21.175      32.644     -56.417
  C      -22.943      34.539     -56.520
  O      -21.620      34.130     -56.832
  C      -22.940      35.944     -55.926
  O      -22.325      35.945     -54.618
  C      -22.192      36.977     -56.760
  O      -23.006      37.479     -57.806
  C      -21.869      38.030     -55.709
  O      -22.999      38.890     -55.459
  C      -21.556      37.169     -54.477
  N      -16.907      39.130     -54.340
  C      -18.132      39.751     -54.457
  N      -18.111      41.093     -54.614
  N      -19.274      39.118     -54.434
  C      -19.137      37.777     -54.304
  C      -17.981      37.045     -54.162
  C      -16.726      37.764     -54.159
  O      -15.610      37.279     -53.993
  N      -18.252      35.708     -54.038
  C      -19.565      35.627     -54.142
  N      -20.146      36.855     -54.322
  O      -19.800      32.438     -57.213
  O      -21.005      32.406     -54.956
  H      -23.743      38.355     -55.134
  H      -19.054      32.582     -56.601
  H      -16.063      39.675     -54.347
  H      -20.135      34.710     -54.095
  H      -21.877      37.649     -53.546
  H      -21.049      38.677     -56.024
  H      -17.295      41.573     -54.967
  H      -21.257      36.557     -57.152
  H      -19.005      41.554     -54.723
  H      -23.986      36.246     -55.791
  H      -23.368      33.842     -55.790
  H      -23.551      34.516     -57.430
  P      -22.271      38.131     -59.076
  C      -22.718      36.156     -60.709
  O      -21.758      36.907     -59.978
  O      -20.919      38.722     -58.458
  O      -23.066      39.171     -59.790
  H      -20.526      39.370     -59.073
  H      -22.223      35.381     -61.256
  H      -23.232      36.801     -61.390
  H      -23.422      35.720     -60.031

 6  7  8  9  10  11  12  13  14  15  26  29  33  34 0
 6-311+G(2d,p)
 ****
 36  38  39  40  41 0
 6-311+G(2d,p)
 ****
 1  2  3  4  5  16  17  18  19  20  21  22  23  24  25 0
 3-21G
 ****
 27  28  30  31  32  35  37  42  43  44  45  46  47 0
 3-21G
 ****
 48  49 0
 3-21G
 ****


