%nproc=1
%NoSave
%Mem=1900MB
#P OB98/GEN NMR

erre ene a

0 1
  C      551.867    -898.410    -249.797
  O      550.672    -897.640    -249.913
  P      549.453    -897.870    -248.910
  C      549.553    -895.440    -247.915
  O      549.594    -896.850    -247.710
  C      550.892    -894.830    -247.479
  O      551.983    -895.460    -248.146
  C      550.948    -893.330    -247.778
  O      550.526    -892.570    -246.661
  C      552.393    -893.140    -248.158
  O      553.206    -893.020    -246.981
  C      552.729    -894.450    -248.909
  N      552.333    -894.570    -250.318
  C      553.187    -894.050    -251.309
  O      554.281    -893.540    -251.058
  N      552.729    -894.150    -252.595
  C      551.563    -894.760    -252.984
  O      551.049    -894.620    -254.112
  C      550.855    -895.490    -251.937
  C      551.237    -895.350    -250.672
  O      549.809    -899.300    -248.230
  O      548.095    -897.880    -249.536
  H      553.111    -893.870    -246.479
  H      549.321    -900.000    -248.651
  H      553.276    -893.680    -253.300
  H      549.999    -896.100    -252.234
  H      550.706    -895.860    -249.872
  H      553.782    -894.690    -248.820
  H      552.522    -892.210    -248.734
  H      550.309    -893.100    -248.650
  H      551.007    -895.000    -246.397
  H      548.721    -895.000    -247.358
  H      549.366    -895.240    -248.982
  P      549.099    -891.840    -246.672
  C      548.356    -892.760    -244.387
  O      548.141    -892.810    -245.804
  O      548.583    -891.470    -248.024
  O      549.333    -890.550    -245.752
  H      549.510    -889.770    -246.332
  H      547.545    -893.290    -243.897
  H      548.391    -891.730    -244.023
  H      549.314    -893.270    -244.147
  H      552.560    -898.109    -250.555
  H      551.636    -899.448    -249.917
  H      552.302    -898.250    -248.832

 3  4  5  6  7  8  9  10  11  12  13  23  28  29  30  31  32 0
 6-311+G(2d,p)
 ****
 33  34 0
 6-311+G(2d,p)
 ****
 1  2  14  15  16  17  18  19  20  21  22  24  25  26  27 0
 3-21G
 ****
 35  36  37  38  39  40  41  42  43  44  45 0
 3-21G
 ****


