%nproc=1
%NoSave
%Mem=1900MB
#P OB98/GEN NMR

erre ene a

0 1
  C      165.916    -411.912     370.817
  O      166.112    -411.194     369.606
  P      167.364    -410.185     369.550
  C      167.014    -410.222     366.978
  O      167.304    -409.443     368.132
  C      166.365    -409.347     365.902
  O      167.169    -408.163     365.672
  C      166.222    -410.011     364.534
  O      165.154    -410.926     364.513
  C      166.022    -408.784     363.650
  O      164.665    -408.321     363.753
  C      166.965    -407.755     364.295
  N      169.516    -405.834     360.284
  C      168.213    -405.741     360.655
  N      167.605    -406.295     361.726
  C      168.489    -407.004     362.452
  C      169.834    -407.207     362.186
  C      170.344    -406.580     361.051
  N      171.672    -406.674     360.669
  N      170.410    -408.005     363.146
  C      169.433    -408.282     363.981
  N      168.255    -407.684     363.621
  O      168.615    -411.166     369.405
  O      167.501    -409.282     370.734
  H      164.079    -409.099     363.629
  H      169.404    -410.809     369.869
  H      167.588    -405.148     360.010
  H      169.527    -408.888     364.877
  H      166.552    -406.741     364.309
  H      166.233    -408.977     362.594
  H      167.156    -410.505     364.256
  H      165.391    -409.013     366.270
  H      166.312    -411.021     367.234
  H      171.928    -406.310     359.768
  H      172.268    -407.334     361.156
  H      167.938    -410.671     366.604
  P      165.327    -412.251     363.615
  C      164.259    -413.820     365.359
  O      164.129    -413.190     364.091
  O      166.610    -412.936     364.300
  O      165.430    -411.998     362.156
  H      166.524    -412.987     365.265
  H      163.369    -414.382     365.574
  H      164.415    -413.063     366.135
  H      165.127    -414.504     365.344
  H      165.057    -412.543     370.723
  H      165.765    -411.222     371.621
  H      166.778    -412.512     371.019

 3  4  5  6  7  8  9  10  11  12  22  25  29  30  31  32 0
 6-311+G(2d,p)
 ****
 33  36  37 0
 6-311+G(2d,p)
 ****
 1  2  13  14  15  16  17  18  19  20  21  23  24  26 0
 3-21G
 ****
 27  28  34  35  38  39  40  41  42  43  44  45  46  47  48 0
 3-21G
 ****


