%nproc=1
%NoSave
%Mem=1900MB
#P OB98/GEN NMR

erre ene a

0 1
  C       78.806    -135.465      -0.664
  O       78.484    -134.103      -0.881
  P       78.245    -133.631      -2.398
  C       80.739    -133.788      -3.109
  O       79.615    -132.945      -2.882
  C       81.980    -133.265      -2.379
  O       83.097    -134.143      -2.666
  C       82.381    -131.841      -2.769
  O       82.866    -131.187      -1.596
  C       83.537    -132.051      -3.729
  O       84.395    -130.913      -3.779
  C       84.179    -133.323      -3.151
  N       84.985    -134.033      -4.140
  C       86.332    -133.666      -4.241
  O       86.766    -132.731      -3.568
  N       87.135    -134.332      -5.132
  C       86.615    -135.211      -5.931
  N       87.452    -135.845      -6.796
  C       85.175    -135.537      -5.944
  C       84.432    -134.934      -5.018
  O       77.249    -132.390      -2.235
  O       77.691    -134.688      -3.299
  H       83.832    -130.106      -3.766
  H       76.647    -132.323      -3.000
  H       84.787    -136.251      -6.657
  H       83.370    -135.129      -4.937
  H       84.820    -133.076      -2.293
  H       83.154    -132.241      -4.739
  H       81.554    -131.268      -3.199
  H       81.790    -133.323      -1.300
  H       88.432    -135.592      -6.778
  H       80.958    -133.807      -4.180
  H       87.137    -136.542      -7.457
  H       80.502    -134.806      -2.789
  P       82.353    -129.694      -1.310
  C       84.595    -129.047      -2.381
  O       83.676    -128.789      -1.338
  O       82.044    -129.761       0.264
  O       81.172    -129.194      -2.071
  H       81.656    -128.916       0.557
  H       85.372    -128.278      -2.363
  H       84.092    -129.021      -3.350
  H       85.065    -130.024      -2.228
  H       78.937    -135.638       0.384
  H       79.712    -135.704      -1.181
  H       78.012    -136.082      -1.031

 3  4  5  6  7  8  9  10  11  12  13  21  23  27  28  29  30  32 0
 6-311+G(2d,p)
 ****
 34  35 0
 6-311+G(2d,p)
 ****
 1  2  14  15  16  17  18  19  20  22  24  25  26 0
 3-21G
 ****
 31  33  36  37  38  39  40  41  42  43  44  45  46 0
 3-21G
 ****


