%nproc=1
%NoSave
%Mem=1900MB
#P OB98/GEN NMR

erre ene a

0 1
  C       93.587    -234.715     146.463
  O       94.029    -234.693     147.814
  P       95.347    -235.528     148.188
  C       94.221    -237.848     148.587
  O       94.878    -236.724     149.151
  C       93.721    -238.789     149.690
  O       92.936    -239.847     149.070
  C       94.831    -239.464     150.510
  O       94.316    -239.643     151.836
  C       94.983    -240.817     149.832
  O       95.585    -241.790     150.681
  C       93.530    -241.105     149.458
  N       93.213    -246.010     148.229
  C       93.400    -245.417     149.470
  N       93.444    -246.255     150.533
  N       93.524    -244.129     149.647
  C       93.439    -243.419     148.490
  C       93.297    -243.892     147.204
  C       93.119    -245.315     147.026
  O       92.866    -245.875     145.963
  N       93.339    -242.876     146.289
  C       93.427    -241.787     147.020
  N       93.441    -242.060     148.365
  O       96.133    -234.539     149.166
  O       96.186    -235.976     147.028
  H       95.862    -242.547     150.119
  H       96.788    -234.002     148.675
  H       93.101    -247.007     148.159
  H       93.480    -240.775     146.643
  H       92.954    -241.515     150.303
  H       95.605    -240.717     148.935
  H       93.323    -247.253     150.471
  H       95.762    -238.898     150.530
  H       93.549    -245.841     151.457
  H       93.050    -238.227     150.345
  H       94.934    -238.395     147.960
  H       93.388    -237.511     147.956
  P       95.091    -238.920     153.042
  C       97.248    -240.342     153.222
  O       95.984    -240.022     153.773
  O       93.911    -238.643     154.099
  O       95.786    -237.646     152.668
  H       94.099    -237.825     154.596
  H       97.881    -240.774     154.003
  H       97.751    -239.456     152.811
  H       97.122    -241.084     152.421
  H       92.704    -234.118     146.367
  H       93.369    -235.722     146.175
  H       94.355    -234.321     145.830

 3  4  5  6  7  8  9  10  11  12  23  26  30  31 0
 6-311+G(2d,p)
 ****
 33  35  36  37  38 0
 6-311+G(2d,p)
 ****
 1  2  13  14  15  16  17  18  19  20  21  22  24  25 0
 3-21G
 ****
 27  28  29  32  34  39  40  41  42  43  44  45  46  47  48  49 0
 3-21G
 ****


