%nproc=1
%NoSave
%Mem=1900MB
#P OB98/GEN NMR

erre ene a

0 1
  C     -426.150    -437.517    -447.582
  O     -426.877    -437.733    -446.391
  H     -426.833    -437.133    -448.346
  H     -425.722    -438.460    -447.936
  H     -425.352    -436.784    -447.416
  P     -426.030    -438.134    -445.088
  C     -426.729    -440.669    -445.123
  O     -426.744    -439.420    -444.438
  C     -427.562    -441.695    -444.354
  O     -426.962    -442.014    -443.095
  C     -428.957    -441.205    -443.980
  O     -429.820    -441.118    -445.094
  C     -429.358    -442.269    -442.978
  O     -429.786    -443.472    -443.628
  C     -428.019    -442.501    -442.218
  N     -427.999    -441.862    -440.914
  C     -428.374    -442.672    -439.834
  O     -428.691    -443.844    -440.014
  N     -428.414    -442.105    -438.576
  C     -428.080    -440.869    -438.415
  N     -428.147    -440.374    -437.145
  C     -427.650    -439.986    -439.520
  C     -427.647    -440.547    -440.732
  O     -426.398    -436.971    -444.060
  O     -424.571    -438.322    -445.317
  H     -430.057    -444.088    -442.914
  H     -427.353    -436.841    -443.934
  H     -427.374    -438.957    -439.338
  H     -427.346    -439.969    -441.594
  H     -427.843    -443.581    -442.081
  H     -430.186    -441.939    -442.340
  H     -428.889    -440.248    -443.454
  H     -427.605    -442.615    -444.953
  H     -428.466    -441.004    -436.416
  H     -425.705    -441.025    -445.264
  H     -427.950    -439.411    -436.902
  H     -427.162    -440.502    -446.119
  P     -430.841    -439.883    -445.237
  C     -432.617    -441.705    -445.677
  O     -432.100    -440.435    -446.072
  O     -430.248    -438.620    -445.761
  O     -431.460    -439.749    -443.764
  H     -431.920    -440.543    -443.431
  H     -433.446    -441.963    -446.302
  H     -432.940    -441.657    -444.658
  H     -431.853    -442.447    -445.775

 6  7  8  9  10  11  12  13  14  15  16  26  30  31  32  33  35 0
 6-311+G(2d,p)
 ****
 37  38 0
 6-311+G(2d,p)
 ****
 1  2  3  4  5  17  18  19  20  21  22  23  24  25 0
 3-21G
 ****
 27  28  29  34  36  39  40  41  42  43  44  45  46 0
 3-21G
 ****


