%nproc=1
%NoSave
%Mem=1900MB
#P OB98/GEN NMR

erre ene a

0 1
  C        3.630      77.981     -64.324
  O        2.469      77.392     -64.925
  P        1.643      78.089     -66.117
  C        0.246      79.304     -64.321
  O        0.926      79.414     -65.563
  C       -1.062      80.108     -64.311
  O       -0.770      81.542     -64.308
  C       -1.988      79.835     -65.514
  O       -3.328      79.851     -65.011
  C       -1.711      81.038     -66.409
  O       -2.714      81.268     -67.378
  C       -1.594      82.132     -65.336
  N       -1.023      83.397     -65.794
  C       -1.909      84.409     -66.183
  O       -3.127      84.228     -66.200
  N       -1.390      85.622     -66.578
  C       -0.105      85.808     -66.587
  N        0.341      87.036     -66.974
  C        0.865      84.765     -66.202
  C        0.343      83.601     -65.819
  O        0.706      77.158     -66.819
  O        2.750      78.645     -67.135
  H        2.420      78.557     -68.050
  H       -2.818      80.454     -67.905
  H        1.926      84.964     -66.218
  H        0.988      82.790     -65.494
  H       -2.581      82.316     -64.894
  H       -0.764      80.873     -66.930
  H       -1.804      78.870     -65.997
  H       -1.587      79.894     -63.370
  H       -0.360      87.730     -67.223
  H        0.900      79.688     -63.531
  H        1.316      87.292     -67.011
  H        0.043      78.244     -64.115
  P       -3.843      78.647     -64.082
  C       -5.590      77.723     -65.787
  O       -4.405      77.495     -65.048
  O       -5.201      79.255     -63.478
  O       -2.931      78.223     -62.977
  H       -5.397      78.819     -62.625
  H       -5.442      77.369     -66.811
  H       -5.866      78.781     -65.818
  H       -6.409      77.153     -65.331
  H        4.003      77.333     -63.558
  H        3.369      78.926     -63.896
  H        4.384      78.123     -65.069

 3  4  5  6  7  8  9  10  11  12  13  24  27  28  29  30  32 0
 6-311+G(2d,p)
 ****
 34  35 0
 6-311+G(2d,p)
 ****
 1  2  14  15  16  17  18  19  20  21  22  23  25  26 0
 3-21G
 ****
 31  33  36  37  38  39  40  41  42  43  44  45  46 0
 3-21G
 ****


