%nproc=1
%NoSave
%Mem=1900MB
#P OB98/GEN NMR

erre ene a

0 1
  C     -451.252      42.174     440.043
  O     -449.879      42.056     439.720
  H     -451.671      41.172     440.161
  H     -451.788      42.685     439.241
  H     -451.386      42.720     440.984
  P     -448.983      43.385     439.673
  C     -449.604      43.570     437.170
  O     -448.567      43.607     438.139
  C     -449.021      43.459     435.753
  O     -448.255      44.665     435.476
  C     -448.064      42.259     435.554
  O     -448.174      41.866     434.174
  C     -446.721      42.908     435.843
  O     -445.641      42.105     435.469
  C     -446.924      44.239     435.093
  N     -445.942      45.274     435.389
  C     -444.618      45.016     435.055
  O     -444.207      43.989     434.528
  N     -443.727      46.016     435.357
  C     -444.025      47.220     435.925
  O     -443.192      48.091     436.145
  C     -445.444      47.433     436.263
  C     -446.325      46.460     435.973
  O     -447.858      43.441     440.649
  O     -450.040      44.564     439.923
  H     -449.979      44.868     440.847
  H     -444.808      42.608     435.589
  H     -442.765      45.855     435.120
  H     -445.723      48.364     436.727
  H     -447.382      46.594     436.199
  H     -446.946      44.059     434.015
  H     -446.619      43.079     436.916
  H     -448.309      41.410     436.200
  H     -449.848      43.430     435.032
  H     -450.189      44.493     437.259
  H     -450.258      42.715     437.372
  P     -449.092      40.649     433.672
  C     -446.981      39.228     433.161
  O     -448.213      39.744     432.674
  O     -450.411      41.076     433.109
  O     -449.289      39.711     434.959
  H     -450.122      39.207     434.871
  H     -446.509      38.650     432.395
  H     -447.166      38.608     434.013
  H     -446.341      40.038     433.442

 6  7  8  9  10  11  12  13  14  15  16  27  31  32  33  34  35 0
 6-311+G(2d,p)
 ****
 36  37 0
 6-311+G(2d,p)
 ****
 1  2  3  4  5  17  18  19  20  21  22  23  24  25 0
 3-21G
 ****
 26  28  29  30  38  39  40  41  42  43  44  45 0
 3-21G
 ****


