%nproc=1
%NoSave
%Mem=1900MB
#P OB98/GEN NMR

erre ene a

0 1
  C      114.143    -578.342     459.617
  O      113.380    -577.215     459.247
  H      114.900    -578.033     460.338
  H      114.643    -578.759     458.734
  H      113.507    -579.099     460.073
  P      112.178    -577.448     458.200
  C      113.349    -576.039     456.344
  O      112.237    -576.168     457.220
  C      113.546    -574.575     455.944
  O      112.329    -574.089     455.321
  C      113.872    -573.655     457.120
  O      114.907    -572.741     456.730
  C      112.578    -572.909     457.375
  O      112.800    -571.641     457.999
  C      111.943    -572.862     455.981
  N      110.484    -572.732     456.045
  C      109.990    -571.514     456.525
  O      110.762    -570.617     456.876
  N      108.633    -571.352     456.640
  C      107.844    -572.348     456.373
  N      106.503    -572.134     456.526
  C      108.331    -573.668     455.910
  C      109.648    -573.785     455.774
  O      110.878    -577.181     459.087
  O      112.191    -578.767     457.506
  H      112.025    -571.063     457.799
  H      110.061    -577.493     458.629
  H      107.628    -574.470     455.719
  H      110.084    -574.719     455.439
  H      112.353    -572.024     455.397
  H      111.943    -573.504     458.053
  H      114.193    -574.202     458.005
  H      114.323    -574.527     455.164
  H      106.216    -571.212     456.856
  H      113.174    -576.655     455.447
  H      105.797    -572.845     456.375
  H      114.252    -576.403     456.857
  P      116.416    -573.330     456.786
  C      117.334    -571.005     457.474
  O      117.415    -572.093     456.574
  O      116.536    -574.180     455.442
  O      116.681    -574.152     458.005
  H      116.411    -575.134     455.620
  H      118.058    -570.265     457.205
  H      117.529    -571.349     458.468
  H      116.354    -570.578     457.430

 6  7  8  9  10  11  12  13  14  15  16  26  30  31  32  33  35 0
 6-311+G(2d,p)
 ****
 37  38 0
 6-311+G(2d,p)
 ****
 1  2  3  4  5  17  18  19  20  21  22  23  24  25 0
 3-21G
 ****
 27  28  29  34  36  39  40  41  42  43  44  45  46 0
 3-21G
 ****


