%nproc=1
%NoSave
%Mem=1900MB
#P OB98/GEN NMR

erre ene a

0 1
  C     1094.971      91.837     523.174
  O     1095.567      92.833     522.333
  P     1097.051      93.309     522.726
  C     1096.297      95.697     523.448
  O     1097.099      94.904     522.576
  C     1096.736      97.162     523.403
  O     1098.052      97.325     523.950
  C     1096.790      97.760     522.010
  O     1095.491      98.119     521.531
  C     1097.655      98.985     522.245
  O     1096.838     100.067     522.751
  C     1098.629      98.508     523.321
  N     1103.269     100.210     522.182
  C     1102.182     100.886     522.700
  N     1102.350     102.190     522.993
  N     1101.009     100.326     522.928
  C     1100.982      99.019     522.621
  C     1101.992      98.224     522.087
  C     1103.268      98.872     521.816
  O     1104.249      98.334     521.328
  N     1101.603      96.924     521.933
  C     1100.359      96.898     522.382
  N     1099.939      98.144     522.804
  O     1097.932      92.798     521.484
  O     1097.543      92.765     524.025
  H     1096.390      99.728     523.549
  H     1098.850      92.646     521.764
  H     1104.122     100.688     522.021
  H     1099.726      96.030     522.425
  H     1098.778      99.253     524.121
  H     1098.132      99.354     521.324
  H     1103.227     102.662     522.917
  H     1097.302      97.064     521.314
  H     1101.581     102.693     523.412
  H     1096.027      97.736     524.019
  H     1096.385      95.320     524.479
  H     1095.248      95.588     523.161
  P     1094.657      96.996     520.768
  C     1095.163      97.959     518.417
  O     1094.185      97.665     519.388
  O     1093.310      96.901     521.615
  O     1095.343      95.671     520.650
  H     1092.921      96.005     521.561
  H     1095.871      97.139     518.307
  H     1095.701      98.881     518.685
  H     1094.663      98.118     517.454
  H     1093.991      91.605     522.812
  H     1094.903      92.209     524.175
  H     1095.574      90.953     523.163

 3  4  5  6  7  8  9  10  11  12  23  26  30  31  33  0
 6-311+G(2d,p)
 ****
 35  36  37  38 0
 6-311+G(2d,p)
 ****
 1  2  13  14  15  16  17  18  19  20  21  22  24  25  27  28  29 0
 3-21G
 ****
 32  34  39  40  41  42  43  44  45  46  47  48  49 0
 3-21G
 ****


