%nproc=1
%NoSave
%Mem=1900MB
#P OB98/GEN NMR

erre ene a

0 1
  C      759.010     275.842      72.448
  O      758.733     276.749      71.400
  H      759.375     274.904      72.020
  H      758.091     275.642      73.007
  H      759.776     276.244      73.122
  P      758.572     278.294      71.788
  C      760.921     278.500      70.693
  O      760.042     278.942      71.722
  C      761.802     279.656      70.216
  O      760.992     280.550      69.394
  C      762.418     280.495      71.355
  O      763.742     280.894      70.966
  C      761.531     281.721      71.381
  O      762.182     282.851      71.956
  C      761.217     281.881      69.895
  N      759.580     286.579      70.555
  C      760.845     286.044      70.689
  N      761.819     286.880      71.122
  N      761.132     284.800      70.428
  C      760.069     284.081      69.978
  C      758.764     284.498      69.808
  C      758.457     285.871      70.125
  O      757.349     286.399      70.048
  N      757.969     283.447      69.400
  C      758.791     282.413      69.346
  N      760.071     282.746      69.687
  O      758.256     278.233      73.356
  O      757.517     279.032      71.038
  H      762.334     282.666      72.907
  H      757.291     278.252      73.501
  H      759.405     287.547      70.798
  H      758.502     281.402      69.084
  H      762.053     282.323      69.334
  H      760.613     281.517      71.956
  H      761.687     287.855      71.326
  H      762.458     279.969      72.317
  H      762.766     286.500      71.184
  H      762.585     279.249      69.568
  H      760.323     278.132      69.854
  H      761.535     277.681      71.078
  P      764.807     281.192      72.121
  C      766.620     279.391      71.598
  O      765.576     279.815      72.461
  O      763.895     281.418      73.417
  O      765.690     282.364      71.851
  H      764.308     282.086      74.000
  H      767.026     278.468      71.956
  H      767.389     280.135      71.576
  H      766.232     279.250      70.611

 6  7  8  9  10  11  12  13  14  15  26  29  33  34 0
 6-311+G(2d,p)
 ****
 36  38  39  40  41 0
 6-311+G(2d,p)
 ****
 1  2  3  4  5  16  17  18  19  20  21  22  23  24  25 0
 3-21G
 ****
 27  28  30  31  32  35  37  42  43  44  45  46  47 0
 3-21G
 ****
 48  49 0
 3-21G
 ****


