%nproc=1
%NoSave
%Mem=1900MB
#P OB98/GEN NMR

erre ene a

0 1
  C     -370.974    -793.914    -558.000
  O     -369.577    -793.921    -558.244
  P     -368.675    -792.908    -557.372
  C     -366.786    -794.375    -556.347
  O     -368.055    -793.777    -556.177
  C     -366.496    -795.310    -555.159
  O     -367.318    -796.491    -555.230
  C     -365.047    -795.791    -555.070
  O     -364.223    -794.809    -554.475
  C     -365.195    -797.063    -554.247
  O     -365.284    -796.755    -552.845
  C     -366.535    -797.622    -554.767
  N     -364.351    -801.999    -556.096
  C     -364.142    -801.194    -554.987
  N     -363.248    -801.648    -554.087
  N     -364.749    -800.055    -554.779
  C     -365.599    -799.717    -555.784
  C     -365.887    -800.420    -556.933
  C     -365.257    -801.700    -557.124
  O     -365.486    -802.490    -558.037
  N     -366.794    -799.748    -557.715
  C     -367.080    -798.661    -557.021
  N     -366.396    -798.605    -555.831
  O     -369.758    -791.984    -556.650
  O     -367.668    -792.125    -558.154
  H     -364.478    -796.290    -552.565
  H     -369.863    -791.132    -557.143
  H     -363.878    -802.869    -556.192
  H     -367.781    -797.894    -557.325
  H     -367.113    -798.108    -553.969
  H     -364.350    -797.735    -554.365
  H     -362.725    -802.504    -554.183
  H     -364.683    -796.051    -556.075
  H     -363.073    -801.083    -553.263
  H     -366.773    -794.772    -554.236
  H     -366.014    -793.594    -556.380
  H     -366.760    -794.948    -557.286
  P     -363.339    -793.888    -555.447
  C     -363.788    -791.479    -554.562
  O     -364.074    -792.463    -555.543
  O     -363.578    -794.540    -556.893
  O     -361.891    -793.836    -555.099
  H     -362.751    -794.482    -557.414
  H     -363.914    -790.495    -555.003
  H     -362.773    -791.584    -554.182
  H     -364.506    -791.583    -553.731
  H     -371.451    -794.626    -558.640
  H     -371.366    -792.938    -558.198
  H     -371.159    -794.172    -556.978

 3  4  5  6  7  8  9  10  11  12  23  26  30  31 0
 6-311+G(2d,p)
 ****
 33  35  36  37  38 0
 6-311+G(2d,p)
 ****
 1  2  13  14  15  16  17  18  19  20  21  22  24  25 0
 3-21G
 ****
 27  28  29  32  34  39  40  41  42  43  44  45  46  47  48  49 0
 3-21G
 ****


