%nproc=1
%NoSave
%Mem=1900MB
#P OB98/GEN NMR

erre ene a

0 1
  C     -413.092     523.165    -248.809
  O     -413.246     524.072    -249.894
  P     -414.203     523.621    -251.110
  C     -415.804     525.708    -251.179
  O     -415.611     524.342    -250.841
  C     -416.988     526.286    -250.391
  O     -416.770     526.108    -248.981
  C     -417.213     527.778    -250.584
  O     -417.833     528.063    -251.826
  C     -418.043     528.116    -249.357
  O     -419.424     527.753    -249.579
  C     -417.416     527.200    -248.290
  N     -416.496     527.899    -247.397
  C     -417.018     528.355    -246.191
  O     -418.191     528.198    -245.871
  N     -416.141     529.028    -245.382
  C     -414.846     529.333    -245.673
  O     -414.116     529.982    -244.928
  C     -414.347     528.852    -246.972
  C     -415.187     528.163    -247.766
  O     -414.451     522.089    -250.730
  O     -413.596     523.859    -252.449
  H     -414.383     521.932    -249.765
  H     -419.412     526.821    -249.891
  H     -416.493     529.351    -244.491
  H     -413.336     529.083    -247.253
  H     -414.847     527.814    -248.727
  H     -418.209     526.737    -247.670
  H     -418.023     529.186    -249.107
  H     -416.245     528.312    -250.527
  H     -417.891     525.722    -250.665
  H     -416.012     525.777    -252.253
  H     -414.888     526.269    -250.957
  P     -416.912     528.734    -252.966
  C     -418.118     527.770    -255.075
  O     -416.984     527.750    -254.232
  O     -415.450     528.485    -252.359
  O     -417.231     530.160    -253.230
  H     -415.344     527.596    -251.969
  H     -417.840     527.326    -256.039
  H     -418.476     528.781    -255.247
  H     -418.920     527.166    -254.624
  H     -412.435     523.590    -248.079
  H     -412.679     522.246    -249.168
  H     -414.046     522.977    -248.363

 3  4  5  6  7  8  9  10  11  12  13  24  28  29  30  31  32 0
 6-311+G(2d,p)
 ****
 33  34 0
 6-311+G(2d,p)
 ****
 1  2  14  15  16  17  18  19  20  21  22  23  25  26  27 0
 3-21G
 ****
 35  36  37  38  39  40  41  42  43  44  45 0
 3-21G
 ****


