%nproc=1
%NoSave
%Mem=1900MB
#P OB98/GEN NMR

erre ene a

0 1
  C      396.391    -507.131    -230.210
  O      395.355    -506.312    -230.717
  H      395.982    -507.753    -229.407
  H      397.189    -506.512    -229.793
  H      396.788    -507.784    -230.990
  P      395.650    -505.411    -232.007
  C      395.276    -507.523    -233.447
  O      396.116    -506.403    -233.179
  C      394.912    -507.552    -234.927
  O      394.022    -506.458    -235.245
  C      396.104    -507.400    -235.862
  O      396.845    -508.602    -235.952
  C      395.406    -506.984    -237.152
  O      394.871    -508.126    -237.832
  C      394.272    -506.082    -236.615
  N      394.586    -504.657    -236.719
  C      394.203    -504.022    -237.902
  O      393.670    -504.611    -238.843
  N      394.505    -502.687    -237.985
  C      395.218    -501.968    -237.071
  O      395.532    -500.791    -237.240
  C      395.617    -502.694    -235.859
  C      395.284    -503.981    -235.740
  O      396.545    -504.236    -231.788
  O      394.193    -504.953    -232.489
  H      394.500    -507.795    -238.678
  H      394.052    -504.017    -232.246
  H      394.246    -502.217    -238.842
  H      396.168    -502.153    -235.107
  H      395.571    -504.536    -234.855
  H      393.345    -506.268    -237.171
  H      396.079    -506.488    -237.840
  H      396.742    -506.577    -235.523
  H      394.376    -508.490    -235.129
  H      394.368    -507.436    -232.843
  H      395.804    -508.440    -233.157
  P      398.338    -508.579    -236.528
  C      399.262    -509.308    -234.244
  O      399.338    -508.348    -235.294
  O      398.552    -507.674    -237.695
  O      398.611    -510.101    -236.932
  H      398.795    -510.151    -237.889
  H      399.968    -509.057    -233.480
  H      399.487    -510.280    -234.632
  H      398.275    -509.308    -233.832

 6  7  8  9  10  11  12  13  14  15  16  26  31  32  33  34  35 0
 6-311+G(2d,p)
 ****
 36  37 0
 6-311+G(2d,p)
 ****
 1  2  3  4  5  17  18  19  20  21  22  23  24  25 0
 3-21G
 ****
 27  28  29  30  38  39  40  41  42  43  44  45 0
 3-21G
 ****


