%nproc=1
%NoSave
%Mem=1900MB
#P OB98/GEN NMR

erre ene a

0 1
  C      117.535     404.764     242.145
  O      118.412     405.589     242.893
  P      119.682     406.208     242.131
  C      118.387     408.431     241.758
  O      119.128     407.370     241.170
  C      118.285     409.620     240.798
  O      117.396     410.613     241.381
  C      119.622     410.319     240.503
  O      119.562     410.769     239.145
  C      119.593     411.490     241.470
  O      120.515     412.522     241.164
  C      118.116     411.866     241.395
  N      117.888     416.647     243.196
  C      118.318     416.149     242.014
  N      118.341     414.867     241.603
  C      117.844     414.056     242.550
  C      117.384     414.415     243.809
  C      117.416     415.780     244.121
  N      116.985     416.285     245.336
  N      116.978     413.301     244.520
  C      117.184     412.289     243.701
  N      117.690     412.696     242.497
  O      120.090     405.049     241.109
  O      120.824     406.603     243.019
  H      120.424     413.249     241.807
  H      121.062     404.977     241.030
  H      118.694     416.884     241.303
  H      117.009     411.249     243.942
  H      117.876     412.398     240.465
  H      119.842     411.126     242.475
  H      120.492     409.666     240.623
  H      117.825     409.274     239.865
  H      118.893     408.766     242.668
  H      117.234     417.242     245.539
  H      116.837     415.618     246.087
  H      117.391     408.067     242.038
  P      120.857     410.610     238.213
  C      120.082     408.179     237.918
  O      121.160     409.033     238.245
  O      122.005     411.180     239.187
  O      120.793     411.271     236.881
  H      121.965     410.756     240.068
  H      120.451     407.149     237.881
  H      119.664     408.440     236.945
  H      119.309     408.249     238.691
  H      116.740     404.424     242.776
  H      118.074     403.921     241.766
  H      117.128     405.324     241.329

 3  4  5  6  7  8  9  10  11  12  22  25  29  30  31  32 0
 6-311+G(2d,p)
 ****
 33  36  37 0
 6-311+G(2d,p)
 ****
 1  2  13  14  15  16  17  18  19  20  21  23  24  26 0
 3-21G
 ****
 27  28  34  35  38  39  40  41  42  43  44  45  46  47  48 0
 3-21G
 ****


