%nproc=1
%NoSave
%Mem=1900MB
#P OB98/GEN NMR

erre ene a

0 1
  C       85.482     164.721     -22.505
  O       84.925     165.678     -23.386
  H       86.270     164.177     -23.031
  H       84.712     164.013     -22.188
  H       85.915     165.217     -21.633
  P       83.754     166.597     -22.792
  C       81.893     164.972     -23.625
  O       82.514     165.615     -22.523
  C       80.419     164.684     -23.315
  O       79.719     165.953     -23.156
  C       79.688     163.912     -24.425
  O       78.640     163.144     -23.812
  C       79.084     165.043     -25.240
  O       78.101     164.557     -26.127
  C       78.631     165.956     -24.105
  N       75.225     168.978     -26.429
  C       75.187     167.669     -26.101
  N       76.127     166.937     -25.471
  C       77.191     167.696     -25.156
  C       77.368     169.044     -25.419
  C       76.323     169.697     -26.094
  N       76.361     171.027     -26.439
  N       78.595     169.476     -24.946
  C       79.144     168.406     -24.407
  N       78.336     167.308     -24.518
  O       83.288     167.461     -24.055
  O       84.136     167.458     -21.636
  H       77.566     165.296     -26.491
  H       83.743     168.324     -24.053
  H       74.281     167.139     -26.381
  H       80.119     168.368     -23.936
  H       77.743     165.564     -23.595
  H       79.846     165.531     -25.855
  H       80.343     163.246     -24.994
  H       80.351     164.163     -22.353
  H       82.422     164.032     -23.822
  H       81.960     165.614     -24.508
  H       75.576     171.415     -26.937
  H       77.180     171.570     -26.210
  P       78.926     161.618     -23.397
  C       77.771     160.751     -25.579
  O       78.903     160.712     -24.720
  O       77.549     161.203     -22.686
  O       80.081     161.403     -22.475
  H       77.720     160.506     -22.026
  H       77.927     160.089     -26.405
  H       77.633     161.748     -25.942
  H       76.901     160.445     -25.037

 6  7  8  9  10  11  12  13  14  15  25  28  32  33  34  35 0
 6-311+G(2d,p)
 ****
 36  37  40 0
 6-311+G(2d,p)
 ****
 1  2  3  4  5  16  17  18  19  20  21  22  23  24 0
 3-21G
 ****
 26  27  29  30  31  38  39 41  42  43  44  45  46  47  48 0
 3-21G
 ****


