%nproc=1
%NoSave
%Mem=1900MB
#P OB98/GEN NMR

erre ene a

0 1
  C      319.043     663.436     -48.025
  O      318.274     663.835     -49.139
  H      318.439     663.562     -47.118
  H      319.941     664.054     -47.940
  H      319.322     662.382     -48.119
  P      319.003     663.828     -50.564
  C      321.259     664.744     -51.482
  O      320.293     664.778     -50.436
  C      322.599     665.249     -50.952
  O      323.100     664.354     -49.928
  C      323.695     665.319     -52.007
  O      323.592     666.459     -52.833
  C      324.933     665.354     -51.119
  O      325.240     666.684     -50.678
  C      324.532     664.452     -49.940
  N      325.176     663.138     -50.020
  C      326.001     662.792     -48.943
  O      326.174     663.528     -47.979
  N      326.626     661.586     -49.028
  C      326.566     660.729     -50.100
  O      327.212     659.679     -50.144
  C      325.699     661.151     -51.216
  C      325.057     662.324     -51.131
  O      318.007     664.676     -51.492
  O      319.271     662.468     -51.126
  H      317.534     664.074     -52.101
  H      325.489     667.187     -51.477
  H      327.227     661.318     -48.266
  H      325.637     660.486     -52.071
  H      324.432     662.651     -51.953
  H      324.827     664.908     -48.990
  H      325.810     664.991     -51.660
  H      323.710     664.390     -52.597
  H      322.448     666.238     -50.496
  H      320.938     665.398     -52.298
  H      321.342     663.714     -51.858
  P      324.366     666.437     -54.241
  C      326.885     665.946     -54.805
  O      325.922     666.437     -53.882
  O      324.063     667.926     -54.769
  O      323.902     665.341     -55.142
  H      323.910     668.545     -54.032
  H      327.863     666.032     -54.379
  H      326.838     666.518     -55.708
  H      326.679     664.919     -55.022

 6  7  8  9  10  11  12  13  14  15  16  27  31  32  33  34  35 0
 6-311+G(2d,p)
 ****
 36  37 0
 6-311+G(2d,p)
 ****
 1  2  3  4  5  17  18  19  20  21  22  23  24  25 0
 3-21G
 ****
 26  28  29  30  38  39  40  41  42  43  44  45 0
 3-21G
 ****


