%nproc=1
%NoSave
%Mem=1900MB
#P OB98/GEN NMR

erre ene a

0 1
  C      330.028    -255.993     189.639
  O      330.862    -257.099     189.357
  P      330.275    -258.399     188.624
  C      328.591    -260.246     189.258
  O      329.245    -259.048     189.671
  C      328.571    -261.272     190.390
  O      328.343    -260.624     191.659
  C      327.473    -262.320     190.256
  O      327.830    -263.293     189.294
  C      327.390    -262.841     191.687
  O      328.409    -263.825     191.941
  C      327.655    -261.562     192.513
  N      326.429    -260.994     193.063
  C      325.968    -261.577     194.248
  O      326.565    -262.531     194.750
  N      324.809    -261.096     194.809
  C      324.163    -260.137     194.227
  N      323.014    -259.711     194.825
  C      324.601    -259.518     192.958
  C      325.728    -259.991     192.440
  O      331.294    -259.334     188.064
  O      329.306    -257.780     187.506
  H      328.124    -264.637     191.471
  H      329.821    -257.390     186.757
  H      324.017    -258.728     192.504
  H      326.118    -259.597     191.509
  H      328.338    -261.780     193.347
  H      326.428    -263.311     191.898
  H      326.528    -261.837     189.992
  H      329.558    -261.755     190.427
  H      322.734    -260.185     195.676
  H      329.136    -260.658     188.405
  H      322.414    -258.996     194.436
  H      327.568    -260.008     188.930
  P      326.693    -264.192     188.610
  C      325.052    -265.997     189.413
  O      325.835    -264.871     189.774
  O      327.168    -265.120     187.540
  O      325.681    -263.108     188.000
  H      325.428    -263.378     187.101
  H      324.795    -266.548     190.319
  H      325.609    -266.653     188.734
  H      324.134    -265.659     188.926
  H      330.599    -255.231     190.127
  H      329.228    -256.303     190.278
  H      329.626    -255.608     188.725

 3  4  5  6  7  8  9  10  11  12  13  23  27  28  29  30  32 0
 6-311+G(2d,p)
 ****
 34  35 0
 6-311+G(2d,p)
 ****
 1  2  14  15  16  17  18  19  20  21  22  24  25  26 0
 3-21G
 ****
 31  33  36  37  38  39  40  41  42  43  44  45  46 0
 3-21G
 ****


