%nproc=1
%NoSave
%Mem=1900MB
#P OB98/GEN NMR

erre ene a

0 1
  C      510.895    -571.568     632.034
  O      511.751    -572.696     631.986
  H      510.604    -571.358     633.065
  H      511.430    -570.701     631.634
  H      510.006    -571.748     631.423
  P      511.169    -574.071     632.565
  C      510.394    -575.244     630.385
  O      510.006    -574.548     631.566
  C      509.956    -576.704     630.474
  O      508.507    -576.746     630.442
  C      510.487    -577.603     629.346
  O      511.235    -578.693     629.891
  C      509.234    -578.164     628.684
  O      509.352    -579.538     628.328
  C      508.153    -577.946     629.737
  N      504.082    -580.555     628.120
  C      505.052    -580.871     629.005
  N      506.050    -580.093     629.476
  C      505.972    -578.859     628.952
  C      505.026    -578.376     628.057
  C      504.059    -579.297     627.616
  N      503.103    -578.988     626.673
  N      505.285    -577.051     627.740
  C      506.381    -576.753     628.392
  N      506.845    -577.815     629.131
  O      510.371    -573.611     633.875
  O      512.194    -575.109     632.881
  H      508.584    -579.747     627.762
  H      510.613    -574.184     634.630
  H      505.028    -581.885     629.391
  H      506.907    -575.807     628.348
  H      508.116    -578.769     630.467
  H      509.021    -577.583     627.782
  H      511.100    -577.053     628.620
  H      510.270    -577.097     631.453
  H      511.483    -575.207     630.283
  H      502.524    -579.740     626.332
  H      503.152    -578.092     626.215
  H      509.947    -574.753     629.517
  P      512.444    -579.261     628.989
  C      514.379    -578.338     630.460
  O      513.702    -578.294     629.209
  O      511.971    -578.909     627.496
  O      512.700    -580.716     629.167
  H      512.367    -579.541     626.864
  H      515.190    -577.640     630.452
  H      514.759    -579.324     630.625
  H      513.697    -578.083     631.244

 6  7  8  9  10  11  12  13  14  15  25  28  32  33  34  35 0
 6-311+G(2d,p)
 ****
 36  39  40 0
 6-311+G(2d,p)
 ****
 1  2  3  4  5  16  17  18  19  20  21  22  23  24 0
 3-21G
 ****
 26  27  29  30  31  37  38  41  42  43  44  45  46  47  48 0
 3-21G
 ****


