%nproc=1
%NoSave
%Mem=1900MB
#P OB98/GEN NMR

erre ene a

0 1
  C      131.904    -314.602    -182.344
  O      132.907    -314.172    -181.412
  P      132.936    -314.861    -179.962
  C      134.951    -316.452    -180.380
  O      133.557    -316.326    -180.124
  C      135.669    -317.037    -179.161
  O      135.202    -318.367    -178.849
  C      137.176    -317.142    -179.337
  O      137.836    -315.907    -179.069
  C      137.524    -318.157    -178.256
  O      137.579    -317.503    -176.969
  C      136.329    -319.114    -178.315
  N      138.138    -323.841    -178.369
  C      138.029    -322.943    -177.327
  N      138.455    -323.369    -176.116
  N      137.540    -321.730    -177.452
  C      137.132    -321.454    -178.716
  C      137.195    -322.262    -179.834
  C      137.743    -323.583    -179.678
  O      137.882    -324.425    -180.569
  N      136.695    -321.620    -180.931
  C      136.315    -320.435    -180.488
  N      136.576    -320.281    -179.149
  O      131.382    -315.166    -179.682
  O      133.528    -314.011    -178.888
  H      138.175    -316.736    -177.067
  H      131.214    -315.165    -178.726
  H      138.522    -324.757    -178.216
  H      135.845    -319.671    -181.089
  H      136.032    -319.484    -177.323
  H      138.502    -318.625    -178.417
  H      138.793    -324.299    -175.932
  H      137.433    -317.545    -180.323
  H      138.352    -322.736    -175.326
  H      135.456    -316.383    -178.296
  H      135.377    -315.478    -180.634
  H      135.090    -317.085    -181.262
  P      138.769    -315.292    -180.216
  C      137.240    -313.309    -180.925
  O      137.779    -314.581    -181.254
  O      139.282    -316.593    -180.997
  O      139.900    -314.463    -179.722
  H      140.173    -316.438    -181.362
  H      136.728    -312.906    -181.803
  H      138.033    -312.620    -180.629
  H      136.514    -313.418    -180.110
  H      132.010    -314.057    -183.259
  H      130.933    -314.421    -181.932
  H      132.021    -315.648    -182.536

 3  4  5  6  7  8  9  10  11  12  23  26  30  31 0
 6-311+G(2d,p)
 ****
 33  35  36  37  38 0
 6-311+G(2d,p)
 ****
 1  2  13  14  15  16  17  18  19  20  21  22  24  25 0
 3-21G
 ****
 27  28  29  32  34  39  40  41  42  43  44  45  46  47  48  49 0
 3-21G
 ****


