%nproc=1
%NoSave
%Mem=1900MB
#P OB98/GEN NMR

erre ene a

0 1
  C      -43.209     -34.503      80.521
  O      -43.952     -34.308      79.318
  P      -44.122     -35.548      78.318
  C      -44.442     -34.344      76.057
  O      -45.061     -35.094      77.097
  C      -45.500     -33.608      75.217
  O      -46.397     -34.589      74.630
  C      -46.395     -32.646      76.005
  O      -45.966     -31.295      76.158
  C      -47.641     -32.609      75.123
  O      -47.452     -31.664      74.051
  C      -47.722     -34.020      74.550
  N      -52.559     -35.683      74.661
  C      -51.910     -34.844      73.824
  N      -50.622     -34.452      73.864
  C      -49.980     -35.030      74.892
  C      -50.507     -35.907      75.824
  C      -51.867     -36.233      75.685
  N      -52.531     -37.078      76.544
  N      -49.546     -36.284      76.738
  C      -48.461     -35.631      76.372
  N      -48.668     -34.870      75.255
  O      -44.474     -36.853      78.947
  O      -42.678     -35.626      77.620
  H      -46.548     -31.805      73.714
  H      -42.446     -36.565      77.481
  H      -52.508     -34.429      73.015
  H      -47.511     -35.677      76.884
  H      -48.015     -34.026      73.494
  H      -48.531     -32.285      75.671
  H      -46.649     -33.063      76.986
  H      -45.001     -33.072      74.401
  H      -43.865     -35.015      75.416
  H      -53.516     -37.225      76.399
  H      -52.045     -37.452      77.347
  H      -43.730     -33.662      76.522
  P      -45.457     -30.736      77.570
  C      -46.340     -28.306      77.176
  O      -45.235     -29.164      77.355
  O      -44.287     -31.454      78.149
  O      -46.781     -30.795      78.465
  H      -47.472     -30.165      78.200
  H      -45.998     -27.270      77.264
  H      -47.103     -28.492      77.934
  H      -46.764     -28.453      76.178
  H      -43.186     -33.590      81.078
  H      -42.210     -34.799      80.279
  H      -43.675     -35.267      81.108

 3  4  5  6  7  8  9  10  11  12  22  25  29  30  31  32 0
 6-311+G(2d,p)
 ****
 33  36  37 0
 6-311+G(2d,p)
 ****
 1  2  13  14  15  16  17  18  19  20  21  23  24  26 0
 3-21G
 ****
 27  28  34  35  38  39  40  41  42  43  44  45  46  47  48 0
 3-21G
 ****


