%nproc=1
%NoSave
%Mem=1900MB
#P OB98/GEN NMR

erre ene a

0 1
  C      486.964     428.246     -84.631
  O      487.129     429.631     -84.396
  H      486.184     427.869     -83.964
  H      487.892     427.700     -84.431
  H      486.649     428.078     -85.667
  P      488.402     430.362     -85.049
  C      489.437     430.336     -82.686
  O      489.634     430.034     -84.065
  C      490.624     429.868     -81.845
  O      490.391     430.131     -80.440
  C      490.887     428.369     -81.913
  O      491.321     427.908     -83.177
  C      491.764     428.147     -80.697
  O      493.137     428.455     -80.945
  C      491.163     429.165     -79.695
  N      490.363     428.520     -78.663
  C      491.067     427.782     -77.715
  O      492.288     427.639     -77.733
  N      490.310     427.173     -76.750
  C      488.947     427.192     -76.668
  O      488.326     426.607     -75.790
  C      488.252     427.960     -77.720
  C      488.983     428.580     -78.648
  O      488.234     431.825     -85.342
  O      488.729     429.478     -86.344
  H      493.147     429.232     -81.534
  H      489.335     429.961     -86.960
  H      490.803     426.644     -76.046
  H      487.176     427.985     -77.690
  H      488.495     429.156     -79.436
  H      491.966     429.727     -79.197
  H      491.726     427.115     -80.345
  H      489.941     427.848     -81.716
  H      491.506     430.439     -82.148
  H      488.533     429.817     -82.357
  H      489.292     431.413     -82.568
  P      491.014     426.447     -83.739
  C      493.444     425.525     -83.408
  O      492.060     425.419     -83.087
  O      490.742     426.340     -85.203
  O      489.649     426.079     -82.960
  H      489.113     425.528     -83.567
  H      493.990     424.766     -82.888
  H      493.805     426.488     -83.115
  H      493.576     425.400     -84.462

 6  7  8  9  10  11  12  13  14  15  16  26  31  32  33  34  35 0
 6-311+G(2d,p)
 ****
 36  37 0
 6-311+G(2d,p)
 ****
 1  2  3  4  5  17  18  19  20  21  22  23  24  25 0
 3-21G
 ****
 27  28  29  30  38  39  40  41  42  43  44  45 0
 3-21G
 ****


