%nproc=1
%NoSave
%Mem=1900MB
#P OB98/GEN NMR

erre ene a

0 1
  C      761.383       5.587     163.969
  O      761.229       6.798     164.694
  P      761.686       8.155     163.957
  C      763.341       9.434     165.524
  O      761.998       9.212     165.116
  C      763.384      10.436     166.669
  O      762.868      11.722     166.232
  C      762.518      10.047     167.883
  O      763.229       9.129     168.698
  C      762.277      11.397     168.540
  O      763.413      11.799     169.336
  C      762.110      12.317     167.321
  N      757.910      15.032     168.115
  C      759.078      14.979     168.837
  N      759.169      15.808     169.893
  N      760.090      14.205     168.551
  C      759.863      13.410     167.465
  C      758.717      13.344     166.680
  C      757.638      14.260     166.981
  O      756.613      14.412     166.322
  N      758.862      12.405     165.684
  C      760.067      11.928     165.854
  N      760.733      12.516     166.906
  O      760.318       8.677     163.299
  O      762.780       7.992     162.951
  H      763.540      11.160     170.067
  H      760.281       8.432     162.349
  H      757.161      15.662     168.384
  H      760.525      11.169     165.233
  H      762.535      13.321     167.494
  H      761.409      11.384     169.211
  H      758.431      16.421     170.208
  H      761.568       9.618     167.556
  H      760.030      15.798     170.428
  H      764.419      10.582     166.970
  H      763.913       9.824     164.680
  H      763.788       8.479     165.847
  P      762.846       7.573     168.575
  C      762.434       7.315     171.139
  O      763.161       6.896     170.002
  O      763.966       6.978     167.595
  O      761.469       7.316     168.036
  H      763.583       6.308     167.025
  H      762.364       6.476     171.827
  H      761.414       7.636     170.864
  H      762.961       8.137     171.627
  H      761.045       4.767     164.568
  H      762.415       5.447     163.723
  H      760.806       5.634     163.069

 3  4  5  6  7  8  9  10  11  12  23  26  30  31 0
 6-311+G(2d,p)
 ****
 33  35  36  37  38 0
 6-311+G(2d,p)
 ****
 1  2  13  14  15  16  17  18  19  20  21  22  24  25 0
 3-21G
 ****
 27  28  29  32  34  39  40  41  42  43  44  45  46  47  48  49 0
 3-21G
 ****


