%nproc=1
%NoSave
%Mem=1900MB
#P OB98/GEN NMR

erre ene a

0 1
  C      -40.021     938.049    -300.017
  O      -40.331     938.725    -298.798
  P      -39.675     940.176    -298.610
  C      -41.539     941.736    -297.703
  O      -40.823     941.277    -298.835
  C      -41.324     943.243    -297.501
  O      -39.978     943.555    -297.088
  C      -41.590     944.057    -298.756
  O      -42.979     944.252    -298.932
  C      -40.837     945.353    -298.438
  O      -41.645     946.244    -297.649
  C      -39.632     944.848    -297.634
  N      -35.303     947.200    -298.838
  C      -36.409     947.680    -298.165
  N      -36.341     948.957    -297.717
  N      -37.485     946.967    -297.935
  C      -37.409     945.714    -298.433
  C      -36.350     945.116    -299.095
  C      -35.170     945.910    -299.345
  O      -34.163     945.531    -299.915
  N      -36.625     943.801    -299.386
  C      -37.890     943.647    -299.020
  N      -38.379     944.749    -298.374
  O      -38.728     940.324    -299.898
  O      -38.901     940.320    -297.331
  H      -41.831     945.826    -296.780
  H      -37.792     940.287    -299.612
  H      -34.499     947.794    -298.994
  H      -38.471     942.744    -299.162
  H      -39.419     945.515    -296.779
  H      -40.581     945.901    -299.354
  H      -35.546     949.554    -297.863
  H      -41.140     943.568    -299.629
  H      -37.143     949.319    -297.217
  H      -42.005     943.562    -296.696
  H      -41.219     941.197    -296.818
  H      -42.602     941.508    -297.845
  P      -43.578     944.087    -300.411
  C      -44.737     941.924    -299.570
  O      -44.001     942.558    -300.590
  O      -42.280     944.248    -301.347
  O      -44.632     945.086    -300.767
  H      -42.497     944.823    -302.103
  H      -45.366     941.153    -300.011
  H      -45.377     942.640    -299.035
  H      -44.048     941.456    -298.860
  H      -40.510     937.098    -300.032
  H      -38.963     937.907    -300.087
  H      -40.358     938.636    -300.846

 3  4  5  6  7  8  9  10  11  12  23  26  30  31 0
 6-311+G(2d,p)
 ****
 33  35  36  37  38 0
 6-311+G(2d,p)
 ****
 1  2  13  14  15  16  17  18  19  20  21  22  24  25 0
 3-21G
 ****
 27  28  29  32  34  39  40  41  42  43  44  45  46  47  48  49 0
 3-21G
 ****


