%nproc=1
%NoSave
%Mem=1900MB
#P OB98/GEN NMR

erre ene a

0 1
  C      169.282      79.624     -37.883
  O      169.249      80.588     -36.850
  P      170.558      81.426     -36.469
  C      172.354      82.757     -37.727
  O      171.316      81.791     -37.841
  C      173.448      82.523     -38.770
  O      174.243      81.372     -38.371
  C      172.933      82.253     -40.191
  O      173.885      82.823     -41.093
  C      172.988      80.733     -40.284
  O      173.010      80.261     -41.625
  C      174.262      80.459     -39.491
  N      176.271      75.830     -40.317
  C      176.350      76.982     -41.018
  N      175.760      78.166     -40.747
  C      175.038      78.089     -39.617
  C      174.840      76.983     -38.813
  C      175.513      75.804     -39.192
  N      175.476      74.632     -38.471
  N      173.979      77.283     -37.770
  C      173.670      78.554     -37.949
  N      174.337      79.101     -39.012
  O      171.427      80.807     -35.426
  O      169.991      82.838     -35.983
  H      173.907      80.389     -41.983
  H      170.064      82.909     -35.009
  H      176.965      76.952     -41.913
  H      172.977      79.121     -37.344
  H      175.166      80.662     -40.082
  H      172.111      80.302     -39.786
  H      171.928      82.646     -40.384
  H      174.115      83.393     -38.765
  H      172.787      82.670     -36.723
  H      176.098      73.896     -38.759
  H      175.145      74.661     -37.504
  H      171.937      83.764     -37.836
  P      173.422      83.288     -42.557
  C      171.458      84.629     -43.510
  O      171.958      83.916     -42.393
  O      173.561      82.259     -43.633
  O      174.337      84.573     -42.845
  H      174.334      84.765     -43.807
  H      171.886      85.637     -43.514
  H      170.371      84.700     -43.433
  H      171.713      84.123     -44.447
  H      168.316      79.176     -37.984
  H      170.002      78.869     -37.644
  H      169.554      80.097     -38.804

 3  4  5  6  7  8  9  10  11  12  22  25  29  30  31  32 0
 6-311+G(2d,p)
 ****
 33  36  37 0
 6-311+G(2d,p)
 ****
 1  2  13  14  15  16  17  18  19  20  21  23  24  26 0
 3-21G
 ****
 27  28  34  35  38  39  40  41  42  43  44  45  46  47  48 0
 3-21G
 ****


