%nproc=1
%NoSave
%Mem=1900MB
#P OB98/GEN NMR

erre ene a

0 1
  C     -196.305    -251.466    -521.239
  O     -194.946    -251.598    -521.603
  H     -196.835    -252.380    -521.522
  H     -196.753    -250.622    -521.771
  H     -196.403    -251.322    -520.159
  P     -193.931    -250.475    -521.075
  C     -192.814    -252.068    -519.351
  O     -193.551    -250.874    -519.567
  C     -192.715    -252.357    -517.854
  O     -194.042    -252.231    -517.268
  C     -192.197    -253.765    -517.523
  O     -191.391    -253.684    -516.342
  C     -193.471    -254.532    -517.206
  O     -193.264    -255.675    -516.388
  C     -194.302    -253.442    -516.524
  N     -195.728    -253.750    -516.506
  C     -196.154    -254.757    -515.642
  O     -195.433    -255.341    -514.839
  N     -197.484    -255.090    -515.732
  C     -198.392    -254.542    -516.591
  O     -199.565    -254.898    -516.636
  C     -197.884    -253.493    -517.482
  C     -196.594    -253.152    -517.401
  O     -194.872    -249.195    -520.895
  O     -192.759    -250.203    -521.960
  H     -194.905    -248.674    -521.720
  H     -192.697    -255.401    -515.641
  H     -197.807    -255.817    -515.116
  H     -198.573    -253.044    -518.183
  H     -196.181    -252.394    -518.059
  H     -193.949    -253.275    -515.500
  H     -193.945    -254.862    -518.137
  H     -191.624    -254.233    -518.330
  H     -192.084    -251.590    -517.388
  H     -191.805    -251.948    -519.760
  H     -193.310    -252.896    -519.870
  P     -189.847    -253.290    -516.529
  C     -190.274    -251.067    -515.211
  O     -189.789    -251.692    -516.390
  O     -189.646    -253.561    -518.093
  O     -188.937    -254.056    -515.629
  H     -190.434    -253.351    -518.620
  H     -190.156    -250.007    -515.295
  H     -189.721    -251.422    -514.366
  H     -191.310    -251.302    -515.083

 6  7  8  9  10  11  12  13  14  15  16  27  31  32  33  34  35 0
 6-311+G(2d,p)
 ****
 36  37 0
 6-311+G(2d,p)
 ****
 1  2  3  4  5  17  18  19  20  21  22  23  24  25 0
 3-21G
 ****
 26  28  29  30  38  39  40  41  42  43  44  45 0
 3-21G
 ****


