%nproc=1
%NoSave
%Mem=1900MB
#P OB98/GEN NMR

erre ene a

0 1
  C     -815.020     486.900    1351.162
  O     -813.915     486.545    1351.964
  P     -812.965     485.350    1351.464
  C     -810.886     486.847    1350.807
  O     -811.448     485.857    1351.668
  C     -809.770     487.594    1351.534
  O     -810.327     488.487    1352.516
  C     -808.795     486.702    1352.277
  O     -807.866     486.065    1351.387
  C     -808.157     487.710    1353.243
  O     -807.131     488.462    1352.580
  C     -809.348     488.604    1353.593
  N     -809.952     488.288    1354.886
  C     -809.585     489.086    1355.957
  O     -808.789     490.022    1355.854
  N     -810.142     488.771    1357.171
  C     -810.955     487.713    1357.431
  O     -811.404     487.439    1358.544
  C     -811.305     486.867    1356.264
  C     -810.787     487.177    1355.065
  O     -813.202     485.415    1349.883
  O     -813.284     484.040    1352.105
  H     -813.456     486.307    1349.587
  H     -806.414     487.832    1352.364
  H     -809.909     489.356    1357.951
  H     -811.958     486.030    1356.427
  H     -811.032     486.567    1354.188
  H     -809.047     489.647    1353.629
  H     -807.691     487.211    1354.108
  H     -809.346     485.935    1352.853
  H     -809.242     488.214    1350.773
  H     -811.689     487.560    1350.522
  H     -810.514     486.363    1349.903
  P     -806.876     484.974    1352.054
  C     -807.888     482.839    1350.922
  O     -806.822     483.742    1351.026
  O     -807.792     484.424    1353.264
  O     -805.553     485.538    1352.467
  H     -808.711     484.292    1353.018
  H     -807.842     482.327    1349.959
  H     -808.857     483.342    1350.984
  H     -807.803     482.088    1351.742
  H     -815.552     487.705    1351.624
  H     -815.670     486.057    1351.057
  H     -814.676     487.207    1350.197

 3  4  5  6  7  8  9  10  11  12  13  24  28  29  30  31  32 0
 6-311+G(2d,p)
 ****
 33  34 0
 6-311+G(2d,p)
 ****
 1  2  14  15  16  17  18  19  20  21  22  23  25  26  27 0
 3-21G
 ****
 35  36  37  38  39  40  41  42  43  44  45 0
 3-21G
 ****


