%nproc=1
%NoSave
%Mem=1900MB
#P OB98/GEN NMR

erre ene a

0 1
  C       77.662    -118.844       4.547
  O       76.297    -118.831       4.175
  H       78.235    -118.223       3.855
  H       77.754    -118.427       5.553
  H       78.056    -119.865       4.549
  P       75.883    -119.666       2.869
  C       73.589    -120.508       1.986
  O       74.289    -119.513       2.720
  C       72.083    -120.396       2.226
  O       71.826    -120.629       3.643
  C       71.484    -119.025       1.862
  O       70.192    -119.238       1.278
  C       71.310    -118.353       3.219
  O       70.287    -117.363       3.207
  C       70.997    -119.549       4.108
  N       68.944    -117.625       8.347
  C       68.390    -118.070       7.201
  N       69.010    -118.619       6.135
  C       70.330    -118.755       6.365
  C       71.035    -118.359       7.494
  C       70.283    -117.745       8.513
  N       70.847    -117.228       9.657
  N       72.382    -118.616       7.329
  C       72.490    -119.134       6.121
  N       71.275    -119.236       5.502
  O       76.070    -121.183       3.358
  O       76.674    -119.372       1.639
  H       69.585    -117.644       2.587
  H       76.991    -121.463       3.205
  H       67.313    -117.960       7.117
  H       73.418    -119.422       5.640
  H       69.951    -119.868       4.044
  H       72.250    -117.872       3.510
  H       72.106    -118.440       1.181
  H       71.581    -121.199       1.675
  H       73.931    -121.496       2.311
  H       70.246    -116.715      10.288
  H       71.851    -117.211       9.745
  H       73.808    -120.396       0.919
  P       70.127    -119.426      -0.312
  C       69.273    -121.263      -1.959
  O       69.259    -120.738      -0.635
  O       71.616    -119.869      -0.693
  O       69.704    -118.196      -1.050
  H       71.851    -119.532      -1.577
  H       68.648    -122.131      -2.005
  H       70.274    -121.530      -2.226
  H       68.907    -120.523      -2.640

 6  7  8  9  10  11  12  13  14  15  25  28  32  33  34  35 0
 6-311+G(2d,p)
 ****
 36  39  40 0
 6-311+G(2d,p)
 ****
 1  2  3  4  5  16  17  18  19  20  21  22  23  24 0
 3-21G
 ****
 26  27  29  30  31  37  38  41  42  43  44  45  46  47 0
 3-21G
 ****
 48 0
 3-21G
 ****


