%nproc=1
%NoSave
%Mem=1900MB
#P OB98/GEN NMR

erre ene a

0 1
  C      -52.763      92.686    -421.957
  O      -53.467      92.630    -420.717
  P      -54.302      91.305    -420.355
  C      -54.262      91.537    -417.797
  O      -55.069      91.543    -418.965
  C      -53.544      92.875    -417.575
  O      -54.447      93.991    -417.797
  C      -52.949      93.049    -416.167
  O      -51.730      93.784    -416.316
  C      -54.002      93.886    -415.470
  O      -53.504      94.522    -414.303
  C      -54.415      94.817    -416.613
  N      -55.693      95.464    -416.375
  C      -55.667      96.804    -415.980
  O      -54.590      97.358    -415.752
  N      -56.862      97.470    -415.827
  C      -57.973      96.808    -415.912
  N      -59.133      97.504    -415.777
  C      -58.033      95.354    -416.149
  C      -56.871      94.759    -416.392
  O      -53.537      90.025    -420.441
  O      -55.496      91.336    -421.426
  H      -54.188      95.131    -413.956
  H      -55.718      90.415    -421.678
  H      -58.981      94.832    -416.127
  H      -56.808      93.698    -416.583
  H      -53.655      95.593    -416.778
  H      -54.842      93.247    -415.173
  H      -52.734      92.098    -415.668
  H      -52.741      92.955    -418.320
  H      -59.078      98.500    -415.591
  H      -53.517      90.742    -417.878
  H      -60.045      97.075    -415.880
  H      -54.886      91.279    -416.932
  P      -50.408      93.262    -415.567
  C      -48.295      93.439    -417.067
  O      -49.156      94.073    -416.150
  O      -50.205      91.814    -416.240
  O      -50.504      93.127    -414.083
  H      -49.703      91.249    -415.622
  H      -47.686      94.200    -417.563
  H      -48.855      92.894    -417.832
  H      -47.629      92.752    -416.534
  H      -52.264      93.629    -422.041
  H      -53.455      92.576    -422.765
  H      -52.042      91.896    -421.994

 3  4  5  6  7  8  9  10  11  12  13  23  27  28  29  30  32 0
 6-311+G(2d,p)
 ****
 34  35 0
 6-311+G(2d,p)
 ****
 1  2  14  15  16  17  18  19  20  21  22  24  25  26 0
 3-21G
 ****
 31  33  36  37  38  39  40  41  42  43  44  45  46 0
 3-21G
 ****


