%nproc=1
%NoSave
%Mem=1900MB
#P OB98/GEN NMR

erre ene a

0 1
  C      -34.162     255.198    -191.076
  O      -33.981     255.793    -189.787
  P      -34.995     256.979    -189.393
  C      -36.286     255.688    -187.537
  O      -35.411     256.762    -187.858
  C      -35.810     254.960    -186.282
  O      -34.724     254.065    -186.583
  C      -35.276     255.878    -185.193
  O      -36.326     256.471    -184.443
  C      -34.493     254.894    -184.335
  O      -35.384     254.210    -183.436
  C      -33.931     253.916    -185.381
  N      -29.154     253.786    -183.696
  C      -30.328     253.450    -183.053
  N      -30.209     252.987    -181.789
  N      -31.510     253.556    -183.598
  C      -31.475     254.004    -184.876
  C      -30.378     254.371    -185.620
  C      -29.076     254.278    -184.993
  O      -28.008     254.593    -185.507
  N      -30.736     254.765    -186.882
  C      -32.045     254.613    -186.913
  N      -32.543     254.166    -185.712
  O      -36.327     256.591    -190.193
  O      -34.504     258.341    -189.748
  H      -34.865     253.506    -182.999
  H      -36.848     257.393    -190.384
  H      -28.270     253.692    -183.226
  H      -32.675     254.805    -187.772
  H      -34.025     252.874    -185.056
  H      -33.732     255.380    -183.717
  H      -29.326     252.813    -181.335
  H      -34.593     256.629    -185.611
  H      -31.057     252.702    -181.314
  H      -36.650     254.369    -185.893
  H      -36.330     254.984    -188.370
  H      -37.298     256.084    -187.401
  P      -35.927     257.658    -183.438
  C      -37.327     259.340    -184.832
  O      -37.097     258.743    -183.572
  O      -34.677     258.343    -184.163
  O      -35.598     257.211    -182.054
  H      -34.084     258.749    -183.502
  H      -37.287     258.598    -185.634
  H      -36.579     260.117    -185.013
  H      -38.319     259.799    -184.827
  H      -33.433     254.428    -191.219
  H      -34.045     255.945    -191.833
  H      -35.143     254.776    -191.139

 3  4  5  6  7  8  9  10  11  12  23  26  30  31  33  0
 6-311+G(2d,p)
 ****
 35  36  37  38 0
 6-311+G(2d,p)
 ****
 1  2  13  14  15  16  17  18  19  20  21  22  24  25  27  28  29 0
 3-21G
 ****
 32  34  39  40  41  42  43  44  45  46  47  48  49 0
 3-21G
 ****


