%nproc=1
%NoSave
%Mem=1900MB
#P OB98/GEN NMR

erre ene a

0 1
  C      -10.559      -6.669       7.133
  O      -11.480      -7.132       6.167
  H      -10.862      -5.668       7.451
  H       -9.552      -6.611       6.711
  H      -10.562      -7.326       8.005
  P      -11.190      -8.539       5.452
  C      -11.029     -10.963       6.352
  O      -11.059      -9.581       6.670
  C      -10.469     -11.763       7.526
  O       -9.050     -11.549       7.669
  C      -11.054     -11.398       8.887
  O      -12.372     -11.882       9.082
  C      -10.044     -12.077       9.798
  O      -10.286     -13.495       9.813
  C       -8.717     -11.750       9.072
  N       -8.047     -10.569       9.612
  C       -7.133     -10.786      10.650
  O       -6.922     -11.923      11.070
  N       -6.505      -9.704      11.217
  C       -6.780      -8.508      10.799
  N       -6.165      -7.467      11.427
  C       -7.722      -8.235       9.697
  C       -8.318      -9.296       9.158
  O      -10.065      -8.562       4.468
  O      -12.598      -8.961       4.818
  H      -11.210     -13.623      10.095
  H      -12.468      -9.823       4.353
  H       -7.921      -7.218       9.392
  H       -9.036      -9.175       8.355
  H       -8.028     -12.600       9.120
  H      -10.094     -11.727      10.833
  H      -11.006     -10.318       9.056
  H      -10.612     -12.827       7.299
  H       -5.559      -7.690      12.204
  H      -10.411     -11.094       5.459
  H       -6.526      -6.522      11.355
  H      -12.040     -11.324       6.141
  P      -13.237     -11.245      10.277
  C      -14.017      -8.796      10.705
  O      -13.001      -9.659      10.220
  O      -12.432     -11.701      11.580
  O      -14.677     -11.647      10.320
  H      -12.799     -12.528      11.949
  H      -13.703      -7.779      10.595
  H      -14.198      -9.004      11.739
  H      -14.916      -8.954      10.147

 6  7  8  9  10  11  12  13  14  15  16  26  30  31  32  33  35 0
 6-311+G(2d,p)
 ****
 37  38 0
 6-311+G(2d,p)
 ****
 1  2  3  4  5  17  18  19  20  21  22  23  24  25 0
 3-21G
 ****
 27  28  29  34  36  39  40  41  42  43  44  45  46 0
 3-21G
 ****


