%nproc=1
%NoSave
%Mem=1900MB
#P OB98/GEN NMR

erre ene a

0 1
  C      277.202     -55.691     183.655
  O      277.369     -54.560     184.492
  H      276.294     -56.216     183.963
  H      278.055     -56.364     183.761
  H      277.094     -55.387     182.610
  P      278.545     -53.522     184.161
  C      279.215     -52.998     186.597
  O      278.631     -52.500     185.395
  C      279.183     -51.908     187.670
  O      279.760     -50.687     187.160
  C      277.774     -51.536     188.132
  O      277.252     -52.517     189.008
  C      278.025     -50.180     188.772
  O      278.545     -50.331     190.101
  C      279.094     -49.581     187.824
  N      278.527     -48.645     186.855
  C      278.171     -47.389     187.332
  O      278.291     -47.066     188.520
  N      277.656     -46.523     186.413
  C      277.358     -46.818     185.113
  O      276.805     -46.029     184.352
  C      277.720     -48.166     184.667
  C      278.286     -49.004     185.541
  O      278.480     -52.880     182.815
  O      279.879     -54.397     184.326
  H      279.304     -50.940     190.033
  H      280.237     -54.612     183.446
  H      277.384     -45.605     186.747
  H      277.512     -48.433     183.638
  H      278.555     -50.006     185.227
  H      279.864     -49.062     188.404
  H      277.119     -49.581     188.846
  H      277.111     -51.402     187.265
  H      279.796     -52.239     188.521
  H      280.252     -53.274     186.396
  H      278.660     -53.881     186.930
  P      275.677     -52.815     189.022
  C      276.026     -53.854     191.360
  O      275.411     -53.995     190.076
  O      275.049     -53.003     187.684
  O      275.056     -51.532     189.757
  H      274.431     -51.079     189.152
  H      275.776     -54.697     191.970
  H      275.673     -52.959     191.828
  H      277.088     -53.801     191.243

 6  7  8  9  10  11  12  13  14  15  16  26  31  32  33  34  35 0
 6-311+G(2d,p)
 ****
 36  37 0
 6-311+G(2d,p)
 ****
 1  2  3  4  5  17  18  19  20  21  22  23  24  25 0
 3-21G
 ****
 27  28  29  30  38  39  40  41  42  43  44  45 0
 3-21G
 ****


