%nproc=1
%NoSave
%Mem=1900MB
#P OB98/GEN NMR

erre ene a

0 1
  C      255.173    -366.828     867.234
  O      253.853    -366.743     867.724
  H      255.866    -366.762     868.079
  H      255.372    -366.000     866.553
  H      255.342    -367.780     866.720
  P      252.636    -367.105     866.745
  C      252.360    -369.568     867.459
  O      252.761    -368.673     866.419
  C      251.240    -370.502     866.962
  O      251.798    -371.400     865.952
  C      250.622    -371.378     868.068
  O      249.255    -371.602     867.711
  C      251.423    -372.656     867.935
  O      250.780    -373.734     868.576
  C      251.560    -372.752     866.411
  N      252.630    -373.662     866.009
  C      252.326    -375.017     866.023
  O      251.237    -375.466     866.395
  N      253.334    -375.865     865.647
  C      254.607    -375.499     865.322
  O      255.486    -376.303     865.030
  C      254.887    -374.057     865.369
  C      253.899    -373.214     865.693
  O      252.492    -366.230     865.539
  O      251.340    -367.042     867.685
  H      250.820    -373.637     869.548
  H      250.561    -366.777     867.162
  H      253.122    -376.853     865.648
  H      255.882    -373.722     865.120
  H      254.069    -372.140     865.730
  H      250.623    -373.105     865.962
  H      252.411    -372.546     868.402
  H      250.693    -370.920     869.057
  H      250.479    -369.897     866.458
  H      251.997    -368.973     868.297
  H      253.226    -370.162     867.780
  P      248.035    -370.978     868.564
  C      247.828    -368.774     867.230
  O      248.134    -369.370     868.490
  O      247.910    -371.528     869.951
  O      246.722    -371.308     867.693
  H      245.953    -371.378     868.289
  H      247.928    -367.711     867.305
  H      246.824    -369.019     866.954
  H      248.503    -369.144     866.487

 6  7  8  9  10  11  12  13  14  15  16  26  31  32  33  34  35 0
 6-311+G(2d,p)
 ****
 36  37 0
 6-311+G(2d,p)
 ****
 1  2  3  4  5  17  18  19  20  21  22  23  24  25 0
 3-21G
 ****
 27  28  29  30  38  39  40  41  42  43  44  45 0
 3-21G
 ****


