%nproc=1
%NoSave
%Mem=1900MB
#P OB98/GEN NMR

erre ene a

0 1
  C      223.875    -349.203     298.227
  O      223.425    -350.541     298.114
  H      224.882    -349.137     297.809
  H      223.912    -348.911     299.282
  H      223.214    -348.529     297.673
  P      221.888    -350.817     298.508
  C      222.380    -350.972     301.082
  O      221.734    -350.296     300.015
  C      221.354    -351.720     301.939
  O      222.064    -352.514     302.924
  C      220.392    -350.807     302.681
  O      219.103    -351.430     302.713
  C      220.966    -350.745     304.093
  O      219.970    -350.408     305.062
  C      221.574    -352.149     304.233
  N      222.647    -352.184     305.233
  C      222.416    -352.966     306.367
  O      221.349    -353.562     306.509
  N      223.382    -353.020     307.342
  C      224.457    -352.303     307.228
  N      225.365    -352.377     308.237
  C      224.715    -351.419     306.070
  C      223.783    -351.418     305.117
  O      221.874    -352.413     298.648
  O      220.898    -350.272     297.533
  H      219.364    -351.178     305.149
  H      222.661    -352.773     299.094
  H      225.616    -350.821     306.030
  H      223.896    -350.805     304.229
  H      220.810    -352.876     304.517
  H      221.749    -349.980     304.138
  H      220.304    -349.813     302.248
  H      220.821    -352.433     301.296
  H      225.141    -352.980     309.019
  H      222.926    -350.260     301.708
  H      226.205    -351.825     308.275
  H      223.098    -351.676     300.650
  P      218.054    -351.112     301.542
  C      217.279    -348.806     302.396
  O      217.937    -349.522     301.359
  O      216.749    -351.839     301.626
  O      218.851    -351.550     300.217
  H      218.222    -351.973     299.605
  H      217.267    -347.763     302.157
  H      217.801    -348.954     303.318
  H      216.275    -349.162     302.493

 6  7  8  9  10  11  12  13  14  15  16  26  30  31  32  33  35 0
 6-311+G(2d,p)
 ****
 37  38 0
 6-311+G(2d,p)
 ****
 1  2  3  4  5  17  18  19  20  21  22  23  24  25 0
 3-21G
 ****
 27  28  29  34  36  39  40  41  42  43  44  45  46 0
 3-21G
 ****


