%nproc=1
%NoSave
%Mem=1900MB
#P OB98/GEN NMR

erre ene a

0 1
  C      -12.703    -229.259    -926.154
  O      -12.555    -228.269    -925.123
  P      -11.076    -227.811    -924.690
  C      -11.452    -225.341    -925.454
  O      -10.632    -226.501    -925.512
  C      -10.981    -224.278    -926.457
  O       -9.597    -223.913    -926.188
  C      -11.047    -224.719    -927.933
  O      -11.343    -223.550    -928.706
  C       -9.622    -225.183    -928.199
  O       -9.298    -225.215    -929.580
  C       -8.844    -224.132    -927.398
  N       -7.461    -224.506    -927.097
  C       -6.451    -223.924    -927.845
  O       -6.633    -223.156    -928.790
  N       -5.170    -224.282    -927.498
  C       -4.817    -225.170    -926.522
  O       -3.655    -225.465    -926.275
  C       -5.933    -225.772    -925.782
  C       -7.179    -225.421    -926.100
  O      -10.163    -228.951    -925.360
  O      -10.828    -227.751    -923.219
  H       -9.490    -224.333    -929.949
  H       -9.500    -229.256    -924.716
  H       -4.422    -223.857    -928.022
  H       -5.698    -226.486    -924.994
  H       -8.014    -225.848    -925.556
  H       -8.847    -223.176    -927.945
  H       -9.488    -226.189    -927.794
  H      -11.795    -225.495    -928.112
  H      -11.582    -223.373    -926.301
  H      -11.411    -224.923    -924.448
  H      -12.487    -225.630    -925.666
  P      -12.726    -222.783    -928.431
  C      -11.951    -220.638    -927.144
  O      -12.533    -221.920    -927.095
  O      -13.647    -224.004    -927.946
  O      -13.285    -222.060    -929.615
  H      -13.195    -224.581    -927.309
  H      -12.306    -220.067    -928.009
  H      -10.862    -220.729    -927.195
  H      -12.218    -220.096    -926.237
  H      -13.743    -229.449    -926.320
  H      -12.219    -230.164    -925.851
  H      -12.257    -228.901    -927.058

 3  4  5  6  7  8  9  10  11  12  13  23  28  29  30  31  32 0
 6-311+G(2d,p)
 ****
 33  34 0
 6-311+G(2d,p)
 ****
 1  2  14  15  16  17  18  19  20  21  22  24  25  26 0
 3-21G
 ****
 27  35  36  37  38  39  40  41  42  43  44  45 0
 3-21G
 ****


