%nproc=1
%NoSave
%Mem=1900MB
#P OB98/GEN NMR

erre ene a

0 1
  C      130.790     588.433     532.664
  O      130.442     588.136     531.320
  P      130.715     586.677     530.689
  C      128.281     585.858     530.368
  O      129.464     585.790     531.158
  C      127.241     584.879     530.902
  O      126.706     585.361     532.160
  C      126.031     584.675     529.995
  O      126.361     583.836     528.896
  C      125.024     584.103     530.986
  O      125.272     582.703     531.194
  C      125.347     584.897     532.271
  N      124.422     586.007     532.497
  C      123.286     585.724     533.255
  O      123.083     584.592     533.711
  N      122.395     586.740     533.521
  C      122.612     587.935     533.042
  N      121.738     588.920     533.388
  C      123.775     588.259     532.191
  C      124.629     587.258     531.967
  O      132.047     586.097     531.021
  O      130.450     586.863     529.129
  H      126.227     582.609     531.364
  H      131.255     587.146     528.617
  H      123.915     589.265     531.815
  H      125.522     587.418     531.368
  H      125.317     584.227     533.147
  H      123.979     584.213     530.651
  H      125.667     585.642     529.613
  H      127.742     583.908     531.093
  H      121.075     588.693     534.114
  H      128.536     585.598     529.339
  H      121.998     589.895     533.311
  H      127.899     586.894     530.394
  P      126.976     584.552     527.589
  C      129.338     583.497     527.380
  O      128.558     584.596     527.820
  O      126.502     586.072     527.739
  O      126.534     583.941     526.293
  H      125.730     586.243     527.169
  H      130.393     583.780     527.396
  H      129.061     583.207     526.358
  H      129.194     582.647     528.057
  H      130.528     589.447     532.885
  H      131.843     588.300     532.798
  H      130.261     587.776     533.323

 3  4  5  6  7  8  9  10  11  12  13  23  27  28  29  30  32 0
 6-311+G(2d,p)
 ****
 34  35 0
 6-311+G(2d,p)
 ****
 1  2  14  15  16  17  18  19  20  21  22  24  25  26 0
 3-21G
 ****
 31  33  36  37  38  39  40  41  42  43  44  45  46 0
 3-21G
 ****


