%nproc=1
%NoSave
%Mem=1900MB
#P OB98/GEN NMR

erre ene a

0 1
  C       35.458     -15.600     -35.701
  O       34.071     -15.750     -35.927
  H       35.829     -14.789     -36.333
  H       35.995     -16.517     -35.958
  H       35.644     -15.340     -34.655
  P       33.304     -16.981     -35.241
  C       32.484     -18.104     -37.411
  O       33.358     -18.193     -36.293
  C       31.524     -19.295     -37.445
  O       32.305     -20.514     -37.581
  C       30.655     -19.424     -36.186
  O       29.356     -19.875     -36.578
  C       31.379     -20.494     -35.395
  O       30.512     -21.141     -34.483
  C       31.948     -21.393     -36.498
  N       33.093     -22.163     -36.015
  C       32.817     -23.431     -35.488
  O       31.658     -23.853     -35.461
  N       33.842     -24.164     -34.946
  C       35.035     -23.657     -34.880
  N       35.997     -24.420     -34.295
  C       35.367     -22.311     -35.399
  C       34.363     -21.629     -35.950
  O       31.945     -16.689     -34.695
  O       34.310     -17.457     -34.089
  H       31.036     -21.724     -33.891
  H       34.109     -16.990     -33.255
  H       36.374     -21.932     -35.316
  H       34.510     -20.628     -36.346
  H       31.184     -22.091     -36.865
  H       32.195     -20.039     -34.817
  H       30.573     -18.485     -35.627
  H       30.900     -19.214     -38.344
  H       35.714     -25.324     -33.932
  H       33.099     -18.100     -38.321
  H       36.949     -24.114     -34.150
  H       31.917     -17.167     -37.364
  P       28.136     -18.841     -36.701
  C       26.381     -19.595     -34.995
  O       27.435     -18.675     -35.262
  O       27.184     -19.128     -37.823
  O       28.857     -17.425     -36.928
  H       28.276     -16.851     -37.467
  H       25.981     -19.406     -34.021
  H       26.761     -20.594     -35.037
  H       25.610     -19.476     -35.727

 6  7  8  9  10  11  12  13  14  15  16  26  30  31  32  33  35 0
 6-311+G(2d,p)
 ****
 37  38 0
 6-311+G(2d,p)
 ****
 1  2  3  4  5  17  18  19  20  21  22  23  24  25 0
 3-21G
 ****
 27  28  29  34  36  39  40  41  42  43  44  45  46 0
 3-21G
 ****


