%nproc=1
%NoSave
%Mem=1900MB
#P OB98/GEN NMR

erre ene a

0 1
  C      255.228    -188.551     127.246
  O      255.714    -188.286     128.547
  H      255.946    -188.166     126.517
  H      254.267    -188.052     127.090
  H      255.115    -189.628     127.098
  P      254.744    -188.686     129.763
  C      253.474    -186.407     129.712
  O      253.424    -187.809     129.494
  C      252.147    -185.929     130.293
  O      251.170    -185.741     129.246
  C      251.509    -186.907     131.274
  O      252.099    -186.863     132.562
  C      250.082    -186.389     131.286
  O      250.011    -185.190     132.077
  C      249.864    -186.079     129.788
  N      249.277    -187.198     129.048
  C      247.913    -187.103     128.744
  O      247.259    -186.124     129.101
  N      247.311    -188.139     128.070
  C      248.008    -189.174     127.719
  N      247.359    -190.176     127.067
  C      249.450    -189.307     128.003
  C      250.011    -188.298     128.662
  O      255.398    -187.950     131.025
  O      254.502    -190.145     129.958
  H      249.066    -184.979     132.188
  H      254.801    -188.033     131.808
  H      249.987    -190.195     127.700
  H      251.067    -188.326     128.908
  H      249.222    -185.200     129.658
  H      249.372    -187.101     131.712
  H      251.507    -187.930     130.879
  H      252.316    -184.949     130.761
  H      246.359    -190.084     126.941
  H      253.665    -185.915     128.752
  H      247.773    -191.087     126.916
  H      254.283    -186.162     130.407
  P      252.072    -188.207     133.441
  C      249.989    -187.344     134.730
  O      250.568    -188.393     133.967
  O      252.872    -187.791     134.762
  O      252.670    -189.408     132.777
  H      253.438    -188.521     135.076
  H      248.991    -187.613     135.006
  H      249.968    -186.448     134.146
  H      250.572    -187.181     135.612

 6  7  8  9  10  11  12  13  14  15  16  26  30  31  32  33  35 0
 6-311+G(2d,p)
 ****
 37  38 0
 6-311+G(2d,p)
 ****
 1  2  3  4  5  17  18  19  20  21  22  23  24  25 0
 3-21G
 ****
 27  28  29  34  36  39  40  41  42  43  44  45  46 0
 3-21G
 ****


