%nproc=1
%NoSave
%Mem=1900MB
#P OB98/GEN NMR

erre ene a

0 1
  C     -961.507    -973.151    -267.981
  O     -960.111    -973.375    -268.030
  P     -959.432    -974.062    -266.744
  C     -960.296    -976.513    -266.805
  O     -960.444    -975.207    -266.246
  C     -960.767    -977.585    -265.828
  O     -959.793    -977.721    -264.771
  C     -962.125    -977.288    -265.177
  O     -962.829    -978.526    -265.040
  C     -961.755    -976.785    -263.801
  O     -962.818    -976.965    -262.865
  C     -960.484    -977.589    -263.511
  N     -959.644    -976.958    -262.500
  C     -959.387    -977.696    -261.339
  O     -959.924    -978.787    -261.170
  N     -958.564    -977.156    -260.378
  C     -958.137    -975.940    -260.516
  N     -957.326    -975.442    -259.536
  C     -958.491    -975.083    -261.668
  C     -959.212    -975.654    -262.625
  O     -959.567    -972.933    -265.621
  O     -958.008    -974.491    -266.949
  H     -963.007    -977.936    -262.814
  H     -958.815    -972.973    -264.992
  H     -958.127    -974.057    -261.720
  H     -959.498    -975.118    -263.514
  H     -960.742    -978.606    -263.170
  H     -961.522    -975.712    -263.846
  H     -962.729    -976.591    -265.763
  H     -960.808    -978.543    -266.358
  H     -957.116    -976.047    -258.750
  H     -959.237    -976.686    -267.023
  H     -956.938    -974.508    -259.555
  H     -960.858    -976.560    -267.746
  P     -964.255    -978.653    -265.755
  C     -963.635    -980.418    -267.522
  O     -963.926    -979.058    -267.276
  O     -964.673    -977.114    -265.916
  O     -965.326    -979.439    -265.065
  H     -965.564    -977.054    -266.292
  H     -963.567    -980.572    -268.595
  H     -964.413    -981.057    -267.118
  H     -962.673    -980.679    -267.058
  H     -961.827    -972.692    -268.893
  H     -961.736    -972.507    -267.158
  H     -962.014    -974.085    -267.855

 3  4  5  6  7  8  9  10  11  12  13  21  23  27  28  29  30  32 0
 6-311+G(2d,p)
 ****
 34  35 0
 6-311+G(2d,p)
 ****
 1  2  14  15  16  17  18  19  20  22  24  25  26 0
 3-21G
 ****
 31  33  36  37  38  39  40  41  42  43  44  45  46 0
 3-21G
 ****


