%nproc=1
%NoSave
%Mem=1900MB
#P OB98/GEN NMR

erre ene a

0 1
  C      613.038    -209.232     266.620
  O      614.174    -209.444     265.811
  H      612.765    -210.176     267.094
  H      612.203    -208.893     266.003
  H      613.240    -208.493     267.400
  P      614.996    -208.176     265.286
  C      617.021    -208.951     266.694
  O      616.148    -207.880     266.365
  C      618.456    -208.459     266.881
  O      618.964    -207.956     265.620
  C      618.497    -207.291     267.871
  O      619.740    -207.220     268.565
  C      618.361    -206.074     266.969
  O      618.851    -204.879     267.567
  C      619.152    -206.524     265.745
  N      619.057    -202.221     263.027
  C      619.478    -202.433     264.324
  N      619.912    -201.331     264.996
  N      619.463    -203.593     264.918
  C      618.938    -204.577     264.152
  C      618.465    -204.499     262.859
  C      618.526    -203.206     262.200
  O      618.147    -202.962     261.060
  N      617.985    -205.706     262.422
  C      618.158    -206.519     263.445
  N      618.748    -205.884     264.515
  O      613.991    -206.951     265.508
  O      615.464    -208.249     263.864
  H      619.818    -204.980     267.682
  H      614.199    -206.223     264.896
  H      619.106    -201.305     262.609
  H      617.893    -207.568     263.461
  H      620.221    -206.342     265.882
  H      617.297    -205.923     266.760
  H      619.774    -200.402     264.643
  H      617.684    -207.344     268.604
  H      619.942    -201.409     266.015
  H      619.106    -209.289     267.178
  H      616.975    -209.665     265.868
  H      616.664    -209.460     267.594
  P      620.147    -208.461     269.494
  C      621.885    -209.450     267.802
  O      620.695    -209.625     268.541
  O      618.735    -209.020     270.019
  O      621.061    -208.107     270.617
  H      618.607    -208.770     270.957
  H      622.083    -210.333     267.230
  H      622.699    -209.270     268.473
  H      621.776    -208.615     267.142

 6  7  8  9  10  11  12  13  14  15  26  29  33  34 0
 6-311+G(2d,p)
 ****
 36  38  39  40  41 0
 6-311+G(2d,p)
 ****
 1  2  3  4  5  16  17  18  19  20  21  22  23  24  25 0
 3-21G
 ****
 27  28  30  31  32  35  37  42  43  44  45  46  47 0
 3-21G
 ****
 48  49 0
 3-21G
 ****


