%nproc=1
%NoSave
%Mem=1900MB
#P OB98/GEN NMR

erre ene a

0 1
  C      353.709    -399.359      67.460
  O      352.405    -399.245      66.942
  H      353.760    -400.252      68.090
  H      353.937    -398.484      68.075
  H      354.453    -399.450      66.664
  P      352.165    -398.323      65.657
  C      350.569    -399.818      64.284
  O      350.703    -398.645      65.075
  C      349.163    -400.411      64.380
  O      348.880    -400.772      65.748
  C      348.078    -399.417      63.953
  O      347.807    -399.406      62.562
  C      346.870    -399.912      64.745
  O      346.145    -400.919      64.021
  C      347.491    -400.507      66.010
  N      344.400    -397.688      68.952
  C      344.135    -398.271      67.725
  N      342.910    -398.039      67.210
  N      345.010    -398.995      67.072
  C      346.220    -399.056      67.666
  C      346.604    -398.502      68.868
  C      345.614    -397.764      69.621
  O      345.791    -397.245      70.714
  N      347.935    -398.741      69.131
  C      348.369    -399.357      68.049
  N      347.346    -399.642      67.169
  O      353.125    -398.972      64.546
  O      352.477    -396.868      65.839
  H      345.315    -401.103      64.509
  H      353.443    -398.277      63.942
  H      343.683    -397.168      69.422
  H      349.396    -399.661      67.872
  H      347.029    -401.467      66.272
  H      346.166    -399.094      64.934
  H      342.235    -397.420      67.629
  H      348.321    -398.407      64.296
  H      342.744    -398.288      66.231
  H      349.118    -401.334      63.787
  H      351.303    -400.532      64.663
  H      350.822    -399.606      63.243
  P      348.540    -398.371      61.587
  C      348.469    -399.656      59.300
  O      347.995    -398.599      60.107
  O      350.034    -398.939      61.528
  O      348.500    -396.943      62.022
  H      350.616    -398.445      62.136
  H      347.976    -399.629      58.351
  H      348.266    -400.590      59.781
  H      349.524    -399.550      59.157

 6  7  8  9  10  11  12  13  14  15  26  29  33  34 0
 6-311+G(2d,p)
 ****
 36  38  39  40  41 0
 6-311+G(2d,p)
 ****
 1  2  3  4  5  16  17  18  19  20  21  22  23  24  25 0
 3-21G
 ****
 27  28  30  31  32  35  37  42  43  44  45  46  47 0
 3-21G
 ****
 48  49 0
 3-21G
 ****


