%nproc=1
%NoSave
%Mem=1900MB
#P OB98/GEN NMR

erre ene a

0 1
  C      441.487     287.996     259.958
  O      441.497     289.338     259.511
  H      440.454     287.644     259.983
  H      441.905     287.933     260.966
  H      442.058     287.357     259.276
  P      442.904     290.042     259.205
  C      442.846     289.544     256.673
  O      443.511     289.318     257.907
  C      443.843     289.547     255.508
  O      444.546     288.263     255.490
  C      443.195     289.720     254.115
  O      444.153     290.392     253.287
  C      443.015     288.274     253.699
  O      442.687     288.141     252.338
  C      444.365     287.708     254.169
  N      444.454     286.255     254.207
  C      444.929     285.607     253.069
  O      445.281     286.173     252.031
  N      444.991     284.241     253.145
  C      444.643     283.476     254.228
  O      444.750     282.256     254.248
  C      444.147     284.218     255.395
  C      444.079     285.551     255.336
  O      443.839     290.151     260.361
  O      442.487     291.486     258.647
  H      442.603     292.153     259.349
  H      442.678     287.193     252.103
  H      445.332     283.753     252.330
  H      443.852     283.643     256.267
  H      443.719     286.126     256.187
  H      445.173     288.103     253.545
  H      442.189     287.827     254.257
  H      442.269     290.304     254.147
  H      444.600     290.319     255.692
  H      442.338     290.511     256.722
  H      442.093     288.757     256.520
  P      444.363     291.983     253.283
  C      446.341     291.963     254.958
  O      445.012     292.406     254.691
  O      443.133     292.755     252.934
  O      445.535     292.261     252.226
  H      445.443     293.160     251.860
  H      446.647     292.313     255.922
  H      447.003     292.350     254.212
  H      446.371     290.894     254.941

 6  7  8  9  10  11  12  13  14  15  16  27  31  32  33  34  35 0
 6-311+G(2d,p)
 ****
 36  37 0
 6-311+G(2d,p)
 ****
 1  2  3  4  5  17  18  19  20  21  22  23  24  25 0
 3-21G
 ****
 26  28  29  30  38  39  40  41  42  43  44  45 0
 3-21G
 ****


