%nproc=1
%NoSave
%Mem=1900MB
#P OB98/GEN NMR

erre ene a

0 1
  C       36.368    -314.717     626.178
  O       36.361    -315.864     625.318
  P       36.984    -317.213     625.926
  C       39.300    -316.651     624.893
  O       38.259    -317.609     625.034
  C       40.606    -317.327     624.452
  O       41.113    -318.253     625.442
  C       40.459    -318.147     623.173
  O       40.489    -317.279     622.040
  C       41.669    -319.066     623.245
  O       42.852    -318.423     622.741
  C       41.790    -319.328     624.757
  N       42.907    -323.766     626.963
  C       43.744    -322.748     626.537
  N       45.064    -322.931     626.739
  N       43.322    -321.655     625.951
  C       41.974    -321.605     625.812
  C       41.042    -322.533     626.224
  C       41.520    -323.739     626.856
  O       40.814    -324.652     627.276
  N       39.759    -322.105     625.957
  C       39.933    -320.982     625.275
  N       41.255    -320.605     625.218
  O       35.886    -318.321     625.560
  O       37.221    -317.142     627.405
  H       42.946    -317.550     623.168
  H       35.435    -318.626     626.371
  H       43.280    -324.585     627.405
  H       39.143    -320.398     624.836
  H       42.846    -319.303     625.083
  H       41.529    -319.969     622.640
  H       45.462    -323.751     627.185
  H       39.527    -318.734     623.197
  H       45.701    -322.201     626.448
  H       41.355    -316.540     624.303
  H       39.465    -316.128     625.842
  H       38.993    -315.901     624.168
  P       39.092    -316.841     621.394
  C       39.802    -318.016     619.187
  O       39.266    -316.858     619.797
  O       38.996    -315.288     621.754
  O       37.902    -317.591     621.913
  H       38.090    -315.074     622.073
  H       39.390    -318.104     618.181
  H       39.555    -318.928     619.752
  H       40.891    -317.916     619.122
  H       35.931    -313.885     625.667
  H       37.376    -314.480     626.448
  H       35.803    -314.930     627.061

 3  4  5  6  7  8  9  10  11  12  23  26  30  31 0
 6-311+G(2d,p)
 ****
 33  35  36  37  38 0
 6-311+G(2d,p)
 ****
 1  2  13  14  15  16  17  18  19  20  21  22  24  25 0
 3-21G
 ****
 27  28  29  32  34  39  40  41  42  43  44  45  46  47  48  49 0
 3-21G
 ****


