%nproc=1
%NoSave
%Mem=1900MB
#P OB98/GEN NMR

erre ene a

0 1
  C        8.225     -49.802    -225.220
  O        8.963     -51.010    -225.013
  P        8.874     -51.689    -223.564
  C        7.832     -53.854    -224.569
  O        7.739     -52.816    -223.596
  C        6.767     -54.920    -224.304
  O        5.444     -54.353    -224.322
  C        6.745     -56.016    -225.355
  O        7.799     -56.934    -225.141
  C        5.357     -56.615    -225.160
  O        5.371     -57.685    -224.198
  C        4.530     -55.419    -224.636
  N        3.513     -54.982    -225.580
  C        2.453     -55.869    -225.785
  O        2.428     -56.956    -225.203
  N        1.463     -55.512    -226.667
  C        1.541     -54.384    -227.300
  N        0.533     -54.089    -228.165
  C        2.658     -53.434    -227.130
  C        3.603     -53.794    -226.263
  O        8.229     -50.539    -222.657
  O       10.195     -52.138    -223.025
  H        4.429     -57.870    -224.000
  H        8.572     -50.592    -221.747
  H        2.684     -52.509    -227.688
  H        4.461     -53.157    -226.076
  H        4.027     -55.685    -223.698
  H        4.968     -57.034    -226.092
  H        6.819     -55.575    -226.358
  H        6.951     -55.356    -223.312
  H       -0.216     -54.764    -228.258
  H        8.824     -54.303    -224.544
  H        0.497     -53.242    -228.714
  H        7.709     -53.414    -225.566
  P        9.274     -56.490    -225.580
  C       10.054     -56.506    -223.133
  O        9.877     -55.731    -224.302
  O        8.975     -55.272    -226.576
  O       10.142     -57.528    -226.208
  H        9.802     -54.970    -226.994
  H       10.656     -55.937    -222.422
  H       10.575     -57.439    -223.365
  H        9.083     -56.723    -222.681
  H        8.374     -49.461    -226.223
  H        8.565     -49.054    -224.535
  H        7.184     -49.988    -225.057

 3  4  5  6  7  8  9  10  11  12  13  21  23  27  28  29  30  32 0
 6-311+G(2d,p)
 ****
 34  35 0
 6-311+G(2d,p)
 ****
 1  2  14  15  16  17  18  19  20  22  24  25  26 0
 3-21G
 ****
 31  33  36  37  38  39  40  41  42  43  44  45  46 0
 3-21G
 ****


