%nproc=1
%NoSave
%Mem=1900MB
#P OB98/GEN NMR

erre ene a

0 1
  C     -612.414     915.598     101.320
  O     -611.107     915.738     100.796
  H     -613.054     915.154     100.553
  H     -612.807     916.584     101.577
  H     -612.416     914.953     102.204
  P     -609.921     915.991     101.843
  C     -610.928     918.145     102.904
  O     -610.565     916.781     103.091
  C     -610.743     918.928     104.203
  O     -609.572     918.418     104.889
  C     -610.545     920.436     103.994
  O     -611.191     921.146     105.070
  C     -609.040     920.603     104.160
  O     -608.677     921.931     104.544
  C     -608.757     919.554     105.243
  N     -604.601     920.329     107.945
  C     -605.920     920.628     108.227
  N     -606.170     921.291     109.379
  N     -606.914     920.304     107.440
  C     -606.528     919.632     106.328
  C     -605.260     919.283     105.939
  C     -604.163     919.651     106.808
  O     -602.971     919.436     106.606
  N     -605.280     918.651     104.711
  C     -606.552     918.646     104.363
  N     -607.354     919.228     105.304
  O     -609.041     917.112     101.106
  O     -609.110     914.789     102.195
  H     -607.725     921.945     104.734
  H     -608.310     916.686     100.614
  H     -603.876     920.608     108.578
  H     -606.937     918.253     103.426
  H     -609.055     919.889     106.246
  H     -608.525     920.354     103.236
  H     -605.466     921.541     110.047
  H     -610.905     920.816     103.035
  H     -607.142     921.482     109.611
  H     -611.607     918.737     104.852
  H     -611.976     918.199     102.587
  H     -610.304     918.572     102.101
  P     -612.693     921.641     104.833
  C     -611.973     924.040     104.135
  O     -612.687     922.859     103.793
  O     -613.067     922.339     106.221
  O     -613.655     920.533     104.513
  H     -614.014     922.202     106.426
  H     -612.065     924.754     103.343
  H     -610.940     923.802     104.283
  H     -612.377     924.452     105.036

 6  7  8  9  10  11  12  13  14  15  26  29  33  34 0
 6-311+G(2d,p)
 ****
 36  38  39  40  41 0
 6-311+G(2d,p)
 ****
 1  2  3  4  5  16  17  18  19  20  21  22  23  24  25 0
 3-21G
 ****
 27  28  30  31  32  35  37  42  43  44  45  46  47 0
 3-21G
 ****
 48  49 0
 3-21G
 ****


