%nproc=1
%NoSave
%Mem=1900MB
#P OB98/GEN NMR

erre ene a

0 1
  C       -8.746      48.935      20.222
  O       -7.863      49.865      20.825
  P       -8.304      50.523      22.224
  C       -8.806      49.541      24.584
  O       -8.729      49.311      23.187
  C      -10.133      49.020      25.141
  O      -11.200      49.889      24.680
  C      -10.494      47.593      24.713
  O      -11.228      47.006      25.794
  C      -11.418      47.814      23.531
  O      -12.252      46.690      23.267
  C      -12.161      49.067      23.982
  N      -16.245      51.450      22.192
  C      -16.085      50.722      23.357
  N      -17.150      50.677      24.186
  N      -14.982      50.099      23.680
  C      -13.999      50.249      22.761
  C      -14.048      50.909      21.556
  C      -15.260      51.625      21.229
  O      -15.417      52.352      20.251
  N      -12.881      50.765      20.855
  C      -12.099      50.087      21.671
  N      -12.717      49.792      22.857
  O       -9.694      51.225      21.864
  O       -7.320      51.471      22.832
  H      -11.681      45.962      22.948
  H       -9.563      52.164      21.629
  H      -17.113      51.924      22.006
  H      -11.084      49.789      21.463
  H      -12.984      48.842      24.672
  H      -10.825      48.011      22.630
  H      -18.019      51.158      24.015
  H       -9.625      46.978      24.463
  H      -17.049      50.178      25.061
  H      -10.101      49.095      26.234
  H       -8.749      50.618      24.769
  H       -7.959      49.060      25.083
  P      -11.242      45.407      25.909
  C       -9.439      43.647      26.506
  O       -9.722      44.911      25.939
  O      -11.749      44.951      24.458
  O      -12.134      44.863      26.978
  H      -12.263      44.126      24.536
  H       -8.488      43.287      26.106
  H      -10.219      42.916      26.271
  H       -9.351      43.747      27.590
  H       -8.322      48.584      19.304
  H       -9.684      49.411      20.023
  H       -8.899      48.108      20.883

 3  4  5  6  7  8  9  10  11  12  23  26  30  31 0
 6-311+G(2d,p)
 ****
 33  35  36  37  38 0
 6-311+G(2d,p)
 ****
 1  2  13  14  15  16  17  18  19  20  21  22  24  25 0
 3-21G
 ****
 27  28  29  32  34  39  40  41  42  43  44  45  46  47  48  49 0
 3-21G
 ****


