%nproc=1
%NoSave
%Mem=1900MB
#P OB98/GEN NMR

erre ene a

0 1
  C     -913.720    -339.062    -101.840
  O     -913.857    -338.470    -100.532
  P     -915.054    -337.416    -100.359
  C     -913.971    -335.227     -99.492
  O     -914.468    -335.941    -100.614
  C     -913.872    -333.724     -99.750
  O     -915.210    -333.139     -99.859
  C     -913.138    -332.945     -98.651
  O     -912.433    -331.861     -99.296
  C     -914.263    -332.368     -97.820
  O     -913.836    -331.262     -97.031
  C     -915.264    -332.016     -98.936
  N     -918.172    -329.081     -96.020
  C     -916.782    -329.078     -96.211
  N     -916.109    -328.137     -95.553
  N     -916.156    -329.942     -96.965
  C     -916.988    -330.818     -97.592
  C     -918.355    -330.916     -97.509
  C     -919.045    -329.972     -96.643
  O     -920.260    -329.935     -96.446
  N     -918.852    -331.930     -98.310
  C     -917.756    -332.476     -98.834
  N     -916.611    -331.806     -98.466
  O     -915.361    -337.456     -98.785
  O     -916.275    -337.755    -101.165
  H     -914.637    -330.830     -96.669
  H     -916.135    -338.017     -98.604
  H     -918.593    -328.405     -95.419
  H     -917.736    -333.306     -99.495
  H     -914.965    -331.099     -99.480
  H     -914.681    -333.139     -97.161
  H     -916.539    -327.403     -94.993
  H     -912.428    -333.550     -98.063
  H     -915.096    -328.068     -95.705
  H     -913.364    -333.576    -100.722
  H     -912.959    -335.609     -99.227
  H     -914.601    -335.447     -98.620
  P     -910.916    -332.118     -99.776
  C     -909.746    -331.210     -97.627
  O     -910.054    -332.332     -98.439
  O     -910.447    -330.672    -100.282
  O     -910.766    -333.149    -100.838
  H     -909.906    -330.766    -101.070
  H     -909.599    -331.567     -96.600
  H     -910.583    -330.483     -97.648
  H     -908.834    -330.749     -97.996
  H     -912.895    -339.744    -101.838
  H     -913.545    -338.293    -102.563
  H     -914.618    -339.588    -102.089

 3  4  5  6  7  8  9  10  11  12  23  26  30  31 0
 6-311+G(2d,p)
 ****
 33  35  36  37  38 0
 6-311+G(2d,p)
 ****
 1  2  13  14  15  16  17  18  19  20  21  22  24  25 0
 3-21G
 ****
 27  28  29  32  34  39  40  41  42  43  44  45  46  47  48  49 0
 3-21G
 ****


