%nproc=1
%NoSave
%Mem=1900MB
#P OB98/GEN NMR

erre ene a

0 1
  C       42.629     557.898     485.516
  O       43.494     557.331     486.485
  P       44.395     556.075     486.043
  C       43.507     553.817     487.025
  O       43.437     554.802     485.989
  C       42.688     554.271     488.225
  O       41.299     554.483     487.844
  C       42.639     553.249     489.358
  O       43.821     553.287     490.131
  C       41.396     553.685     490.128
  O       41.708     554.769     491.026
  C       40.473     554.191     488.984
  N       39.423     553.229     488.667
  C       38.162     553.497     489.210
  O       37.944     554.462     489.931
  N       37.181     552.597     488.914
  C       37.332     551.448     488.200
  O       36.432     550.629     488.014
  C       38.706     551.189     487.683
  C       39.658     552.074     487.937
  O       45.324     555.803     487.319
  O       45.203     556.297     484.812
  H       42.271     555.392     490.524
  H       46.209     555.508     487.031
  H       36.264     552.786     489.283
  H       38.853     550.289     487.112
  H       40.667     551.910     487.580
  H       40.005     555.139     489.278
  H       40.981     552.876     490.730
  H       42.467     552.246     488.948
  H       43.084     555.239     488.579
  H       44.563     553.697     487.318
  H       43.150     552.869     486.636
  P       44.122     552.028     491.083
  C       43.758     552.794     493.560
  O       43.195     552.268     492.378
  O       45.608     552.351     491.559
  O       43.964     550.709     490.390
  H       45.783     553.303     491.634
  H       44.549     553.521     493.344
  H       44.175     551.982     494.158
  H       42.971     553.283     494.138
  H       42.097     558.719     485.950
  H       41.932     557.157     485.183
  H       43.205     558.246     484.684

 3  4  5  6  7  8  9  10  11  12  13  23  28  29  30  31  32 0
 6-311+G(2d,p)
 ****
 33  34 0
 6-311+G(2d,p)
 ****
 1  2  14  15  16  17  18  19  20  21  22  24  25  26 0
 3-21G
 ****
 27  35  36  37  38  39  40  41  42  43  44  45 0
 3-21G
 ****


