%nproc=1
%NoSave
%Mem=1900MB
#P OB98/GEN NMR

erre ene a

0 1
  C     -257.054    1192.677    -259.103
  O     -258.421    1192.841    -259.430
  H     -256.822    1191.612    -259.104
  H     -256.850    1193.084    -258.110
  H     -256.431    1193.174    -259.853
  P     -258.977    1194.347    -259.451
  C     -259.089    1194.183    -262.029
  O     -258.588    1194.902    -260.906
  C     -260.253    1194.933    -262.676
  O     -259.869    1196.275    -262.990
  C     -260.765    1194.307    -263.963
  O     -261.665    1193.252    -263.686
  C     -261.473    1195.495    -264.598
  O     -262.781    1195.648    -264.008
  C     -260.574    1196.678    -264.194
  N     -259.902    1199.094    -268.671
  C     -261.022    1198.687    -268.033
  N     -261.125    1198.000    -266.869
  C     -259.909    1197.752    -266.357
  C     -258.680    1198.098    -266.892
  C     -258.695    1198.809    -268.107
  N     -257.548    1199.225    -268.765
  N     -257.646    1197.663    -266.089
  C     -258.244    1197.125    -265.055
  N     -259.616    1197.113    -265.187
  O     -258.579    1195.199    -258.294
  O     -260.557    1194.086    -259.581
  H     -263.371    1195.013    -264.454
  H     -260.725    1193.354    -260.208
  H     -261.956    1198.943    -268.515
  H     -257.740    1196.726    -264.172
  H     -261.172    1197.565    -263.930
  H     -261.619    1195.382    -265.668
  H     -259.944    1193.990    -264.613
  H     -261.059    1194.995    -261.922
  H     -259.404    1193.178    -261.730
  H     -257.653    1199.552    -269.710
  H     -256.664    1198.898    -268.406
  H     -258.262    1194.075    -262.744
  P     -261.935    1192.079    -264.743
  C     -261.539    1190.509    -262.743
  O     -261.220    1190.790    -264.105
  O     -261.550    1192.406    -266.139
  O     -263.491    1191.750    -264.592
  H     -263.806    1191.244    -265.361
  H     -261.009    1189.635    -262.426
  H     -262.592    1190.341    -262.651
  H     -261.255    1191.340    -262.131

 6  7  8  9  10  11  12  13  14  15  25  28  32  33  34  35 0
 6-311+G(2d,p)
 ****
 36  39  40 0
 6-311+G(2d,p)
 ****
 1  2  3  4  5  16  17  18  19  20  21  22  23  24 0
 3-21G
 ****
 26  27  29  30  31  37  38  41  42  43  44  45  46  47 0
 3-21G
 ****
 48 0
 3-21G
 ****


