%nproc=1
%NoSave
%Mem=1900MB
#P OB98/GEN NMR

erre ene a

0 1
  C     -892.150    -681.464    -899.000
  O     -891.160    -681.688    -898.010
  H     -893.060    -682.029    -898.780
  H     -892.410    -680.403    -899.040
  H     -891.760    -681.751    -900.000
  P     -890.650    -683.183    -897.830
  C     -891.750    -685.394    -897.030
  O     -891.880    -684.002    -897.210
  C     -892.420    -685.832    -895.730
  O     -893.830    -685.452    -895.720
  C     -892.400    -687.335    -895.470
  O     -891.150    -687.761    -894.940
  C     -893.520    -687.471    -894.440
  O     -893.030    -687.019    -893.150
  C     -894.540    -686.472    -894.990
  N     -898.960    -689.075    -895.190
  C     -898.210    -688.632    -894.150
  N     -897.060    -687.935    -894.160
  C     -896.650    -687.752    -895.440
  C     -897.310    -688.144    -896.630
  C     -898.530    -688.831    -896.430
  N     -899.260    -689.299    -897.490
  N     -896.580    -687.770    -897.740
  C     -895.530    -687.124    -897.240
  N     -895.530    -687.075    -895.860
  O     -889.630    -683.089    -896.600
  O     -890.020    -683.817    -899.030
  H     -892.590    -687.796    -892.740
  H     -889.020    -683.845    -896.590
  H     -898.620    -688.845    -893.150
  H     -894.760    -686.672    -897.850
  H     -895.100    -685.949    -894.170
  H     -893.880    -688.459    -894.330
  H     -892.690    -687.908    -896.390
  H     -891.920    -685.297    -894.890
  H     -890.690    -685.672    -896.990
  H     -900.000    -689.957    -897.260
  H     -898.870    -689.240    -898.450
  H     -892.220    -685.931    -897.880
  P     -890.680    -689.258    -895.340
  C     -891.850    -691.606    -895.460
  O     -891.940    -690.209    -895.080
  O     -889.660    -689.646    -894.180
  O     -890.050    -689.366    -896.710
  H     -888.980    -690.293    -894.470
  H     -892.768    -692.100    -895.221
  H     -891.046    -692.070    -894.927
  H     -891.669    -691.678    -896.512

 6  7  8  9  10  11  12  13  14  15  25  28  32  33  34  35 0
 6-311+G(2d,p)
 ****
 36  39  40 0
 6-311+G(2d,p)
 ****
 1  2  3  4  5  16  17  18  19  20  21  22  23  24 0
 3-21G
 ****
 26  27  29  30  31  37  38  41  42  43  44  45  46  47 0
 3-21G
 ****
 48 0
 3-21G
 ****


