%nproc=1
%NoSave
%Mem=1900MB
#P OB98/GEN NMR

erre ene a

0 1
  C       57.266      53.640      57.207
  O       58.483      53.853      56.520
  H       57.229      54.314      58.067
  H       57.204      52.610      57.566
  H       56.416      53.860      56.555
  P       58.801      52.953      55.234
  C       57.686      52.750      52.914
  O       57.505      53.046      54.293
  C       56.470      52.007      52.369
  O       56.406      50.676      52.918
  C       55.132      52.669      52.691
  O       54.866      53.725      51.784
  C       54.188      51.493      52.509
  O       53.974      51.256      51.104
  C       55.005      50.337      53.117
  N       53.287      47.057      56.587
  C       53.234      46.995      55.208
  N       52.608      45.923      54.679
  N       53.738      47.909      54.419
  C       54.271      48.958      55.087
  C       54.366      49.141      56.447
  C       53.864      48.091      57.309
  O       53.913      48.096      58.536
  N       54.885      50.373      56.754
  C       55.153      50.912      55.580
  N       54.790      50.095      54.533
  O       59.254      51.551      55.508
  O       59.898      53.792      54.427
  H       53.420      51.986      50.772
  H       60.802      53.528      54.683
  H       52.874      46.328      57.143
  H       55.611      51.881      55.429
  H       54.820      49.387      52.602
  H       53.209      51.659      52.961
  H       52.073      45.268      55.230
  H       55.089      53.001      53.733
  H       52.508      45.890      53.672
  H       56.602      51.899      51.284
  H       58.584      52.131      52.825
  H       57.839      53.671      52.342
  P       53.854      54.917      52.156
  C       53.589      56.405      54.255
  O       54.071      55.184      53.722
  O       52.439      54.685      51.754
  O       54.516      56.215      51.503
  H       54.272      56.335      50.552
  H       53.802      56.446      55.303
  H       52.532      56.468      54.103
  H       54.069      57.224      53.761

 6  7  8  9  10  11  12  13  14  15  26  29  33  34 0
 6-311+G(2d,p)
 ****
 36  38  39  40  41 0
 6-311+G(2d,p)
 ****
 1  2  3  4  5  16  17  18  19  20  21  22  23  24  25 0
 3-21G
 ****
 27  28  30  31  32  35  37  42  43  44  45  46  47 0
 3-21G
 ****
 48  49 0
 3-21G
 ****


