%nproc=1
%NoSave
%Mem=1900MB
#P OB98/GEN NMR

erre ene a

0 1
  C      108.145      64.081     -50.368
  O      108.174      63.132     -49.318
  P      106.811      62.807     -48.543
  C      106.136      61.252     -50.515
  O      105.747      62.287     -49.627
  C      105.628      59.899     -50.010
  O      105.805      58.897     -51.057
  C      106.357      59.386     -48.759
  O      105.403      58.658     -47.973
  C      107.374      58.425     -49.344
  O      107.872      57.494     -48.396
  C      106.543      57.806     -50.472
  N      107.360      57.112     -51.466
  C      108.039      55.972     -51.051
  O      107.994      55.521     -49.908
  N      108.843      55.383     -51.990
  C      109.099      55.859     -53.243
  O      109.920      55.349     -53.994
  C      108.352      57.068     -53.626
  C      107.530      57.629     -52.736
  O      106.265      64.255     -48.139
  O      106.965      61.916     -47.356
  H      107.969      57.963     -47.547
  H      106.470      64.448     -47.205
  H      109.335      54.549     -51.710
  H      108.516      57.461     -54.621
  H      106.983      58.532     -52.985
  H      105.805      57.107     -50.057
  H      108.225      58.992     -49.739
  H      106.816      60.179     -48.163
  H      104.552      59.980     -49.818
  H      107.224      61.225     -50.580
  H      105.745      61.461     -51.517
  P      105.479      58.805     -46.375
  C      103.173      60.031     -46.291
  O      104.550      60.047     -45.982
  O      106.970      59.367     -46.198
  O      105.231      57.527     -45.642
  H      107.191      60.053     -46.849
  H      102.756      59.022     -46.222
  H      103.025      60.413     -47.304
  H      102.644      60.679     -45.588
  H      109.126      64.185     -50.782
  H      107.816      65.025     -49.986
  H      107.470      63.750     -51.130

 3  4  5  6  7  8  9  10  11  12  13  23  28  29  30  31  32 0
 6-311+G(2d,p)
 ****
 33  34 0
 6-311+G(2d,p)
 ****
 1  2  14  15  16  17  18  19  20  21  22  24  25  26 0
 3-21G
 ****
 27  35  36  37  38  39  40  41  42  43  44  45 0
 3-21G
 ****


