%nproc=1
%NoSave
%Mem=1900MB
#P OB98/GEN NMR

erre ene a

0 1
  C      243.380      54.090    -103.145
  O      242.642      54.682    -102.096
  H      244.120      53.407    -102.716
  H      243.908      54.863    -103.713
  H      242.726      53.522    -103.814
  P      241.319      55.518    -102.450
  C      242.566      57.776    -102.443
  O      241.806      56.850    -103.205
  C      242.425      59.193    -103.012
  O      243.022      59.218    -104.347
  C      240.960      59.669    -103.156
  O      240.953      61.089    -102.955
  C      240.684      59.322    -104.608
  O      239.519      59.943    -105.082
  C      242.016      59.742    -105.239
  N      242.197      59.248    -106.601
  C      241.879      60.115    -107.645
  O      241.477      61.264    -107.483
  N      242.027      59.602    -108.907
  C      242.450      58.341    -109.222
  O      242.587      57.944    -110.374
  C      242.744      57.463    -108.075
  C      242.607      57.948    -106.836
  O      240.371      55.742    -101.320
  O      240.641      54.667    -103.631
  H      239.939      54.100    -103.260
  H      239.597      60.917    -105.011
  H      241.802      60.215    -109.677
  H      243.060      56.450    -108.286
  H      242.814      57.332    -105.964
  H      242.119      60.834    -105.236
  H      240.530      58.241    -104.716
  H      240.286      59.190    -102.440
  H      243.008      59.885    -102.390
  H      243.618      57.466    -102.477
  H      242.223      57.756    -101.401
  P      240.747      61.775    -101.515
  C      238.389      60.735    -101.450
  O      239.577      61.007    -100.726
  O      240.542      63.255    -101.581
  O      242.071      61.425    -100.680
  H      242.295      62.181    -100.102
  H      237.694      60.224    -100.817
  H      238.619      60.121    -102.295
  H      237.957      61.655    -101.785

 6  7  8  9  10  11  12  13  14  15  16  27  31  32  33  34  35 0
 6-311+G(2d,p)
 ****
 36  37 0
 6-311+G(2d,p)
 ****
 1  2  3  4  5  17  18  19  20  21  22  23  24  25 0
 3-21G
 ****
 26  28  29  30  38  39  40  41  42  43  44  45 0
 3-21G
 ****


