%nproc=1
%NoSave
%Mem=1900MB
#P OB98/GEN NMR

erre ene a

0 1
  C      397.216     -12.006     -37.409
  O      398.229     -11.717     -36.470
  P      398.158     -10.493     -35.449
  C      397.899     -11.945     -33.312
  O      397.321     -10.962     -34.159
  C      398.624     -11.340     -32.101
  O      397.694     -10.548     -31.331
  C      399.119     -12.452     -31.172
  O      400.342     -13.108     -31.431
  C      398.983     -11.880     -29.764
  O      400.217     -11.366     -29.261
  C      397.961     -10.752     -29.935
  N      395.653     -11.430     -25.471
  C      396.912     -10.924     -25.732
  N      397.717     -10.756     -24.657
  N      397.341     -10.631     -26.931
  C      396.459     -10.945     -27.911
  C      395.182     -11.437     -27.775
  C      394.705     -11.716     -26.441
  O      393.628     -12.244     -26.174
  N      394.605     -11.700     -28.988
  C      395.545     -11.403     -29.864
  N      396.701     -10.982     -29.256
  O      397.880      -9.145     -36.032
  O      399.668     -10.466     -34.879
  H      400.911     -12.033     -29.424
  H      399.900      -9.534     -34.706
  H      395.408     -11.710     -24.529
  H      395.453     -11.516     -30.940
  H      398.365      -9.805     -29.550
  H      398.664     -12.657     -29.060
  H      397.472     -11.105     -23.742
  H      398.373     -13.256     -31.219
  H      398.694     -10.550     -24.826
  H      399.410     -10.650     -32.418
  H      398.592     -12.537     -33.919
  H      397.121     -12.625     -32.956
  P      400.667     -14.652     -31.170
  C      400.794     -15.250     -33.653
  O      400.141     -15.498     -32.419
  O      399.655     -15.076     -30.001
  O      402.077     -14.939     -30.763
  H      399.999     -15.863     -29.538
  H      400.176     -15.631     -34.469
  H      401.760     -15.764     -33.667
  H      400.955     -14.175     -33.801
  H      397.492     -12.870     -37.977
  H      397.091     -11.172     -38.067
  H      396.297     -12.195     -36.895

 3  4  5  6  7  8  9  10  11  12  23  26  30  31 0
 6-311+G(2d,p)
 ****
 33  35  36  37  38 0
 6-311+G(2d,p)
 ****
 1  2  13  14  15  16  17  18  19  20  21  22  24  25 0
 3-21G
 ****
 27  28  29  32  34  39  40  41  42  43  44  45  46  47  48  49 0
 3-21G
 ****


