%nproc=1
%NoSave
%Mem=1900MB
#P OB98/GEN NMR

erre ene a

0 1
  C       73.012     -30.022    -819.596
  O       72.159     -30.761    -820.449
  H       72.620     -29.007    -819.476
  H       73.034     -30.504    -818.615
  H       74.030     -29.989    -819.992
  P       72.210     -30.414    -822.017
  C       73.263     -31.544    -824.104
  O       73.196     -31.493    -822.687
  C       73.935     -32.835    -824.564
  O       75.355     -32.754    -824.255
  C       73.383     -34.111    -823.896
  O       73.341     -35.160    -824.874
  C       74.448     -34.447    -822.856
  O       74.467     -35.827    -822.519
  C       75.714     -33.965    -823.554
  N       80.532     -35.127    -822.427
  C       79.813     -35.282    -823.562
  N       78.536     -34.888    -823.797
  C       78.042     -34.226    -822.735
  C       78.655     -33.988    -821.516
  C       79.967     -34.495    -821.370
  N       80.686     -34.401    -820.206
  N       77.794     -33.325    -820.662
  C       76.674     -33.189    -821.341
  N       76.770     -33.723    -822.595
  O       73.068     -29.055    -822.038
  O       70.885     -30.249    -822.684
  H       74.552     -36.354    -823.338
  H       72.471     -28.294    -821.922
  H       80.316     -35.787    -824.380
  H       75.763     -32.749    -820.963
  H       76.086     -34.688    -824.291
  H       74.259     -33.864    -821.943
  H       72.389     -33.983    -823.448
  H       73.844     -32.910    -825.654
  H       73.847     -30.691    -824.464
  H       81.570     -34.888    -820.162
  H       80.238     -34.035    -819.379
  H       72.247     -31.472    -824.516
  P       71.908     -35.530    -825.492
  C       70.568     -34.999    -827.662
  O       71.808     -34.901    -826.966
  O       70.895     -34.636    -824.636
  O       71.571     -36.987    -825.399
  H       70.042     -35.094    -824.529
  H       70.661     -34.537    -828.623
  H       69.804     -34.504    -827.100
  H       70.309     -36.030    -827.786

 6  7  8  9  10  11  12  13  14  15  25  28  32  33  34  35 0
 6-311+G(2d,p)
 ****
 36  39  40 0
 6-311+G(2d,p)
 ****
 1  2  3  4  5  16  17  18  19  20  21  22  23  24 0
 3-21G
 ****
 26  27  29  30  31  37  38  41  42  43  44  45  46  47 0
 3-21G
 ****
 48 0
 3-21G
 ****


