%nproc=1
%NoSave
%Mem=1900MB
#P OB98/GEN NMR

erre ene a

0 1
  C       47.377     -36.639      93.307
  O       46.991     -36.338      94.655
  P       48.042     -36.174      95.859
  C       48.716     -37.542      97.954
  O       48.080     -37.556      96.681
  C       48.060     -38.546      98.906
  O       46.626     -38.332      98.945
  C       48.205     -40.010      98.509
  O       49.514     -40.501      98.737
  C       47.127     -40.662      99.374
  O       47.613     -40.939     100.696
  C       46.042     -39.570      99.430
  N       44.849     -39.913      98.672
  C       44.034     -40.920      99.208
  O       44.379     -41.524     100.224
  N       42.862     -41.221      98.562
  C       42.575     -40.652      97.433
  N       41.388     -40.980      96.851
  C       43.474     -39.687      96.767
  C       44.580     -39.367      97.437
  O       47.802     -34.971      96.715
  O       49.482     -36.106      95.158
  H       50.099     -35.610      95.728
  H       48.260     -41.666     100.612
  H       43.218     -39.268      95.804
  H       45.289     -38.653      97.027
  H       45.763     -39.367     100.471
  H       46.781     -41.613      98.952
  H       47.940     -40.125      97.449
  H       48.465     -38.381      99.913
  H       40.791     -41.638      97.339
  H       48.622     -36.537      98.380
  H       41.066     -40.577      95.985
  H       49.783     -37.764      97.827
  P       50.401     -40.833      97.439
  C       49.985     -42.167      95.249
  O       49.646     -41.981      96.612
  O       51.687     -41.581      98.045
  O       50.796     -39.636      96.637
  H       52.486     -41.298      97.559
  H       49.791     -43.210      94.980
  H       51.039     -41.941      95.058
  H       49.357     -41.519      94.631
  H       46.504     -36.698      92.691
  H       47.893     -37.576      93.285
  H       48.022     -35.868      92.940

 3  4  5  6  7  8  9  10  11  12  13  24  27  28  29  30  32 0
 6-311+G(2d,p)
 ****
 34  35 0
 6-311+G(2d,p)
 ****
 1  2  14  15  16  17  18  19  20  21  22  23  25  26 0
 3-21G
 ****
 31  33  36  37  38  39  40  41  42  43  44  45  46 0
 3-21G
 ****


