%nproc=1
%NoSave
%Mem=1900MB
#P OB98/GEN NMR

erre ene a

0 1
  C      148.261      37.455    -103.089
  O      147.065      37.652    -102.363
  H      148.439      38.300    -103.759
  H      149.094      37.383    -102.385
  H      148.205      36.528    -103.667
  P      145.718      37.820    -103.220
  C      144.346      36.132    -104.647
  O      145.608      36.479    -104.096
  C      144.556      35.406    -105.971
  O      145.383      36.205    -106.849
  C      145.271      34.068    -105.833
  O      144.395      33.018    -105.461
  C      145.791      33.877    -107.247
  O      144.719      33.453    -108.106
  C      146.234      35.304    -107.608
  N      151.101      34.183    -108.731
  C      149.933      33.779    -109.278
  N      148.680      34.140    -108.935
  C      148.699      35.020    -107.922
  C      149.811      35.528    -107.269
  C      151.063      35.069    -107.709
  N      152.254      35.454    -107.135
  N      149.429      36.394    -106.262
  C      148.113      36.419    -106.322
  N      147.623      35.580    -107.286
  O      146.095      38.930    -104.309
  O      144.489      38.154    -102.445
  H      144.346      32.639    -107.717
  H      145.289      39.272    -104.739
  H      150.018      33.070    -110.095
  H      147.473      37.016    -105.685
  H      146.095      35.531    -108.671
  H      146.574      33.117    -107.310
  H      146.122      34.136    -105.145
  H      143.580      35.284    -106.456
  H      143.766      37.045    -104.815
  H      153.083      34.958    -107.421
  H      152.229      35.994    -106.284
  H      143.807      35.487    -103.945
  P      145.023      31.779    -104.653
  C      145.959      31.525    -102.243
  O      145.708      32.396    -103.339
  O      146.271      31.358    -105.558
  O      144.080      30.644    -104.423
  H      146.433      30.398    -105.503
  H      146.415      32.076    -101.447
  H      146.615      30.739    -102.555
  H      145.036      31.105    -101.903

 6  7  8  9  10  11  12  13  14  15  25  28  32  33  34  35 0
 6-311+G(2d,p)
 ****
 36  39  40 0
 6-311+G(2d,p)
 ****
 1  2  3  4  5  16  17  18  19  20  21  22  23  24 0
 3-21G
 ****
 26  27  29  30  31  37  38  41  42  43  44  45  46  47 0
 3-21G
 ****
 48 0
 3-21G
 ****


