%nproc=1
%NoSave
%Mem=1900MB
#P OB98/GEN NMR

erre ene a

0 1
  C     -415.728     463.195    -115.823
  O     -416.241     463.282    -114.510
  H     -414.781     462.652    -115.790
  H     -415.547     464.199    -116.218
  H     -416.415     462.656    -116.477
  P     -417.760     463.736    -114.303
  C     -417.100     464.887    -112.085
  O     -417.974     463.970    -112.727
  C     -416.902     464.509    -110.609
  O     -415.915     463.448    -110.525
  C     -416.369     465.688    -109.795
  O     -416.759     465.616    -108.424
  C     -414.862     465.507    -109.887
  O     -414.154     466.143    -108.823
  C     -414.742     463.984    -109.887
  N     -410.670     460.919    -109.667
  C     -411.557     461.270    -108.666
  N     -411.327     460.726    -107.445
  N     -412.560     462.086    -108.839
  C     -412.621     462.611    -110.087
  C     -411.793     462.363    -111.153
  C     -410.706     461.425    -110.962
  O     -409.878     461.096    -111.808
  N     -412.167     463.083    -112.264
  C     -413.218     463.774    -111.864
  N     -413.555     463.499    -110.556
  O     -418.593     462.395    -114.569
  O     -418.227     464.855    -115.181
  H     -414.447     467.071    -108.795
  H     -419.512     462.607    -114.810
  H     -409.935     460.265    -109.489
  H     -413.781     464.463    -112.478
  H     -414.717     463.600    -108.857
  H     -414.522     465.959    -110.819
  H     -410.461     460.252    -107.229
  H     -416.674     466.653    -110.201
  H     -411.763     461.203    -106.651
  H     -417.838     464.101    -110.199
  H     -417.553     465.877    -112.169
  H     -416.140     464.921    -112.606
  P     -417.544     466.859    -107.787
  C     -417.035     466.268    -105.252
  O     -417.971     466.521    -106.285
  O     -418.930     466.883    -108.578
  O     -416.820     468.166    -107.888
  H     -419.005     467.701    -109.107
  H     -417.556     466.067    -104.340
  H     -416.407     467.124    -105.123
  H     -416.435     465.422    -105.514

 6  7  8  9  10  11  12  13  14  15  26  29  33  34 0
 6-311+G(2d,p)
 ****
 36  38  39  40  41 0
 6-311+G(2d,p)
 ****
 1  2  3  4  5  16  17  18  19  20  21  22  23  24  25 0
 3-21G
 ****
 27  28  30  31  32  35  37  42  43  44  45  46  47 0
 3-21G
 ****
 48  49 0
 3-21G
 ****


