%nproc=1
%NoSave
%Mem=1900MB
#P OB98/GEN NMR

erre ene a

0 1
  C      569.834    -425.775    -176.067
  O      569.847    -425.397    -177.430
  P      568.933    -424.145    -177.854
  C      570.496    -422.700    -179.355
  O      569.455    -423.685    -179.296
  C      571.270    -422.826    -180.667
  O      572.248    -423.870    -180.563
  C      570.396    -423.189    -181.862
  O      569.685    -422.067    -182.320
  C      571.448    -423.696    -182.849
  O      572.015    -422.617    -183.604
  C      572.500    -424.338    -181.914
  N      572.498    -425.794    -181.977
  C      573.493    -426.359    -182.798
  O      574.268    -425.634    -183.424
  N      573.527    -427.725    -182.910
  C      572.671    -428.460    -182.287
  N      572.768    -429.818    -182.425
  C      571.611    -427.903    -181.414
  C      571.579    -426.565    -181.316
  O      569.434    -422.980    -176.879
  O      567.452    -424.382    -177.740
  H      572.482    -423.043    -184.365
  H      568.727    -422.322    -176.726
  H      570.922    -428.551    -180.911
  H      570.840    -426.070    -180.709
  H      573.499    -423.987    -182.175
  H      571.018    -424.405    -183.569
  H      569.703    -423.995    -181.596
  H      571.791    -421.873    -180.852
  H      573.501    -430.171    -183.024
  H      571.191    -422.873    -178.521
  H      572.163    -430.472    -181.948
  H      570.050    -421.704    -179.249
  P      568.244    -422.306    -182.976
  C      567.275    -419.927    -182.847
  O      567.869    -420.917    -183.676
  O      567.276    -422.300    -181.682
  O      568.078    -423.541    -183.792
  H      566.381    -422.549    -181.949
  H      567.203    -418.994    -183.411
  H      567.874    -419.767    -181.949
  H      566.249    -420.245    -182.571
  H      570.481    -426.615    -175.924
  H      568.838    -426.038    -175.779
  H      570.174    -424.957    -175.467

 3  4  5  6  7  8  9  10  11  12  13  21  23  27  28  29  30  32 0
 6-311+G(2d,p)
 ****
 34  35 0
 6-311+G(2d,p)
 ****
 1  2  14  15  16  17  18  19  20  22  24  25  26 0
 3-21G
 ****
 31  33  36  37  38  39  40  41  42  43  44  45  46 0
 3-21G
 ****


