%nproc=1
%NoSave
%Mem=1900MB
#P OB98/GEN NMR

erre ene a

0 1
  C       33.844     -60.746    -368.097
  O       35.100     -60.897    -367.454
  P       35.517     -62.292    -366.771
  C       34.279     -63.947    -365.221
  O       34.315     -62.636    -365.768
  C       32.953     -64.172    -364.493
  O       31.870     -64.137    -365.444
  C       32.843     -65.509    -363.781
  O       33.585     -65.508    -362.570
  C       31.330     -65.629    -363.625
  O       30.877     -64.841    -362.512
  C       30.827     -65.013    -364.944
  N       30.460     -66.017    -365.941
  C       29.184     -66.577    -365.817
  O       28.419     -66.228    -364.925
  N       28.787     -67.509    -366.748
  C       29.598     -67.866    -367.697
  N       29.125     -68.745    -368.628
  C       30.969     -67.340    -367.829
  C       31.327     -66.423    -366.929
  O       36.869     -62.302    -366.148
  O       35.328     -63.377    -367.925
  H       31.298     -63.964    -362.595
  H       36.134     -63.500    -368.489
  H       31.612     -67.678    -368.631
  H       32.312     -65.974    -366.968
  H       29.959     -64.371    -364.753
  H       30.989     -66.659    -363.467
  H       33.214     -66.322    -364.427
  H       32.812     -63.345    -363.782
  H       28.131     -68.940    -368.600
  H       35.101     -64.054    -364.510
  H       29.568     -68.844    -369.532
  H       34.412     -64.677    -366.026
  P       34.432     -66.823    -362.217
  C       33.842     -69.340    -361.969
  O       33.356     -68.019    -362.100
  O       34.906     -66.563    -360.710
  O       35.578     -67.084    -363.137
  H       35.836     -66.268    -360.696
  H       33.019     -69.987    -361.661
  H       34.629     -69.392    -361.207
  H       34.231     -69.694    -362.927
  H       33.759     -59.752    -368.484
  H       33.059     -60.923    -367.392
  H       33.767     -61.449    -368.900

 3  4  5  6  7  8  9  10  11  12  13  23  27  28  29  30  32 0
 6-311+G(2d,p)
 ****
 34  35 0
 6-311+G(2d,p)
 ****
 1  2  14  15  16  17  18  19  20  21  22  24  25  26 0
 3-21G
 ****
 31  33  36  37  38  39  40  41  42  43  44  45  46 0
 3-21G
 ****


