%nproc=1
%NoSave
%Mem=1900MB
#P OB98/GEN NMR

erre ene a

0 1
  C       96.544     590.052      93.865
  O       97.324     590.678      92.857
  P       98.034     592.076      93.233
  C       95.806     593.363      92.871
  O       97.180     593.236      92.528
  C       95.065     594.239      91.855
  O       93.632     594.091      92.060
  C       95.389     595.741      91.953
  O       95.347     596.262      90.616
  C       94.226     596.258      92.791
  O       94.049     597.664      92.723
  C       93.091     595.422      92.222
  N       88.122     596.601      92.558
  C       89.004     596.682      91.534
  N       90.314     596.340      91.512
  C       90.693     595.856      92.713
  C       89.913     595.730      93.859
  C       88.570     596.122      93.747
  N       87.676     596.048      94.797
  N       90.660     595.217      94.894
  C       91.865     595.047      94.394
  N       91.927     595.393      93.080
  O       99.381     592.035      92.371
  O       98.306     592.276      94.691
  H       93.318     597.938      93.302
  H      100.131     592.412      92.865
  H       88.596     597.076      90.602
  H       92.725     594.684      94.947
  H       92.772     595.772      91.226
  H       94.402     596.015      93.841
  H       96.373     595.947      92.389
  H       95.291     593.870      90.850
  H       95.725     593.833      93.852
  H       86.803     596.537      94.681
  H       88.065     595.890      95.724
  H       95.354     592.369      92.936
  P       96.722     596.578      89.862
  C       96.539     599.096      90.354
  O       96.544     598.097      89.347
  O       96.519     595.752      88.505
  O       97.977     596.251      90.614
  H       95.665     595.955      88.085
  H       96.508     600.072      89.861
  H       97.438     599.033      90.965
  H       95.645     598.992      90.977
  H       96.134     589.140      93.484
  H       95.749     590.705      94.158
  H       97.161     589.839      94.713

 3  4  5  6  7  8  9  10  11  12  22  25  29  30  31  32 0
 6-311+G(2d,p)
 ****
 33  36  37 0
 6-311+G(2d,p)
 ****
 1  2  13  14  15  16  17  18  19  20  21  23  24  26 0
 3-21G
 ****
 27  28  34  35  38  39  40  41  42  43  44  45  46  47  48 0
 3-21G
 ****


