%nproc=1
%NoSave
%Mem=1900MB
#P OB98/GEN NMR

erre ene a

0 1
  C      -38.078      60.490      35.735
  O      -39.308      61.083      36.100
  H      -37.579      60.138      36.642
  H      -37.434      61.225      35.248
  H      -38.241      59.636      35.072
  P      -40.291      61.598      34.943
  C      -42.249      60.613      36.287
  O      -41.611      60.686      35.020
  C      -43.718      60.227      36.127
  O      -44.453      61.379      35.642
  C      -43.947      59.074      35.144
  O      -45.003      58.255      35.646
  C      -44.405      59.776      33.880
  O      -45.218      58.940      33.060
  C      -45.148      60.986      34.443
  N      -47.759      62.990      30.613
  C      -48.048      61.907      31.418
  N      -49.190      61.238      31.152
  N      -47.281      61.510      32.399
  C      -46.177      62.278      32.563
  C      -45.780      63.372      31.832
  C      -46.631      63.794      30.739
  O      -46.421      64.736      29.985
  N      -44.584      63.867      32.289
  C      -44.259      63.071      33.291
  N      -45.189      62.085      33.490
  O      -39.684      61.691      33.580
  O      -40.796      63.021      35.468
  H      -45.335      59.404      32.203
  H      -40.305      63.743      35.033
  H      -48.380      63.247      29.865
  H      -43.366      63.159      33.896
  H      -46.187      60.753      34.705
  H      -43.532      60.089      33.293
  H      -49.837      61.496      30.423
  H      -43.051      58.470      34.979
  H      -49.435      60.453      31.745
  H      -44.123      59.985      37.117
  H      -42.176      61.596      36.765
  H      -41.732      59.876      36.912
  P      -44.629      56.978      36.541
  C      -45.609      58.119      38.632
  O      -44.483      57.459      38.064
  O      -43.509      56.135      36.028
  O      -46.006      56.152      36.570
  H      -45.800      55.201      36.651
  H      -45.391      58.389      39.644
  H      -46.454      57.463      38.612
  H      -45.828      59.001      38.067

 6  7  8  9  10  11  12  13  14  15  26  29  33  34 0
 6-311+G(2d,p)
 ****
 36  38  39  40  41 0
 6-311+G(2d,p)
 ****
 1  2  3  4  5  16  17  18  19  20  21  22  23  24  25 0
 3-21G
 ****
 27  28  30  31  32  35  37  42  43  44  45  46  47 0
 3-21G
 ****
 48  49 0
 3-21G
 ****


