%nproc=1
%NoSave
%Mem=1900MB
#P OB98/GEN NMR

erre ene a

0 1
  C     -898.970     123.686     392.574
  O     -898.200     122.753     393.354
  P     -898.490     122.518     394.911
  C     -897.430     124.497     396.174
  O     -898.660     123.929     395.679
  C     -897.660     125.887     396.826
  O     -898.260     125.775     398.149
  C     -896.370     126.713     397.002
  O     -896.770     128.087     396.869
  C     -895.980     126.400     398.419
  O     -895.080     127.353     398.988
  C     -897.350     126.372     399.083
  N     -895.300     126.095     403.789
  C     -895.250     127.048     402.837
  N     -895.840     127.064     401.639
  C     -896.610     125.971     401.444
  C     -896.780     124.911     402.345
  C     -896.060     125.002     403.549
  N     -896.080     123.997     404.496
  N     -897.600     123.943     401.791
  C     -897.920     124.432     400.591
  N     -897.350     125.625     400.352
  O     -897.530     121.575     395.573
  O     -899.980     121.895     394.949
  H     -895.540     128.199     399.070
  H     -899.980     121.131     395.556
  H     -894.640     127.914     403.088
  H     -898.540     123.898     399.895
  H     -897.730     127.393     399.301
  H     -895.470     125.418     398.468
  H     -895.590     126.474     396.264
  H     -898.390     126.414     396.217
  H     -896.730     124.591     395.366
  H     -895.470     124.109     405.313
  H     -896.540     123.132     404.296
  H     -897.020     123.805     396.936
  P     -896.170     129.044     395.730
  C     -894.540     130.271     397.272
  O     -894.670     129.401     396.177
  O     -897.010     130.221     395.384
  O     -895.960     128.074     394.463
  H     -895.890     128.626     393.650
  H     -894.760     131.303     396.961
  H     -893.520     130.213     397.656
  H     -895.240     129.980     398.087
  H     -898.613     123.688     391.565
  H     -898.869     124.667     392.990
  H     -900.000     123.397     392.587

 3  4  5  6  7  8  9  10  11  12  22  25  29  30  31  32 0
 6-311+G(2d,p)
 ****
 33  36  37 0
 6-311+G(2d,p)
 ****
 1  2  13  14  15  16  17  18  19  20  21  23  24  26 0
 3-21G
 ****
 27  28  34  35  38  39  40  41  42  43  44  45  46  47  48 0
 3-21G
 ****


