%nproc=1
%NoSave
%Mem=1900MB
#P OB98/GEN NMR

erre ene a

0 1
  C     -313.904    -348.130    -244.685
  O     -312.791    -347.797    -243.880
  H     -313.562    -348.251    -245.717
  H     -314.638    -347.321    -244.652
  H     -314.365    -349.061    -244.354
  P     -312.943    -347.874    -242.286
  C     -312.223    -350.353    -242.184
  O     -313.246    -349.405    -241.913
  C     -311.639    -350.912    -240.880
  O     -312.689    -351.594    -240.154
  C     -310.539    -351.945    -241.156
  O     -309.583    -352.005    -240.100
  C     -311.312    -353.254    -241.198
  O     -310.495    -354.395    -240.933
  C     -312.389    -353.004    -240.146
  N     -315.574    -356.579    -238.397
  C     -314.320    -356.229    -237.935
  N     -313.855    -356.926    -236.870
  N     -313.582    -355.303    -238.489
  C     -314.140    -354.748    -239.590
  C     -315.367    -355.026    -240.151
  C     -316.193    -356.031    -239.512
  O     -317.304    -356.392    -239.890
  N     -315.587    -354.259    -241.273
  C     -314.497    -353.523    -241.385
  N     -313.603    -353.767    -240.373
  O     -314.353    -347.162    -242.007
  O     -311.837    -347.233    -241.502
  H     -311.087    -355.167    -240.864
  H     -314.391    -346.842    -241.088
  H     -316.115    -357.281    -237.917
  H     -314.320    -352.798    -242.171
  H     -312.023    -353.263    -239.148
  H     -311.723    -353.378    -242.206
  H     -314.307    -357.766    -236.545
  H     -310.021    -351.767    -242.096
  H     -312.839    -356.901    -236.722
  H     -311.293    -350.084    -240.244
  H     -311.453    -349.832    -242.758
  H     -312.610    -351.160    -242.812
  P     -308.072    -351.559    -240.407
  C     -307.811    -349.530    -238.723
  O     -307.882    -350.015    -240.047
  O     -307.981    -351.593    -241.999
  O     -307.029    -352.430    -239.765
  H     -307.351    -352.278    -242.290
  H     -307.683    -348.468    -238.739
  H     -306.981    -349.982    -238.222
  H     -308.716    -349.772    -238.205

 6  7  8  9  10  11  12  13  14  15  26  29  33  34 0
 6-311+G(2d,p)
 ****
 36  38  39  40  41 0
 6-311+G(2d,p)
 ****
 1  2  3  4  5  16  17  18  19  20  21  22  23  24  25 0
 3-21G
 ****
 27  28  30  31  32  35  37  42  43  44  45  46  47 0
 3-21G
 ****
 48  49 0
 3-21G
 ****


