%nproc=1
%NoSave
%Mem=1900MB
#P OB98/GEN NMR

erre ene a

0 1
  C       -4.756     -60.458     857.881
  O       -4.850     -59.437     858.853
  P       -5.632     -59.672     860.233
  C       -8.112     -60.065     860.873
  O       -7.180     -59.835     859.824
  C       -9.478     -59.530     860.467
  O      -10.056     -60.358     859.447
  C      -10.505     -59.476     861.599
  O      -10.253     -58.388     862.470
  C      -11.804     -59.399     860.810
  O      -12.037     -58.054     860.369
  C      -11.500     -60.300     859.603
  N      -12.068     -61.640     859.737
  C      -13.449     -61.741     859.745
  O      -14.169     -60.746     859.648
  N      -14.034     -62.991     859.853
  C      -13.285     -64.038     859.955
  N      -13.902     -65.246     859.992
  C      -11.808     -63.988     860.011
  C      -11.272     -62.764     859.901
  O       -5.378     -58.660     861.292
  O       -5.238     -61.166     860.679
  H      -12.845     -58.056     859.837
  H       -4.411     -61.206     861.222
  H      -11.228     -64.897     860.117
  H      -10.200     -62.648     859.887
  H      -11.883     -59.866     858.683
  H      -12.677     -59.717     861.383
  H      -10.475     -60.413     862.166
  H       -9.338     -58.517     860.041
  H      -14.899     -65.263     859.782
  H       -7.772     -59.541     861.768
  H      -13.404     -66.114     859.790
  H       -8.159     -61.143     861.073
  P      -10.890     -58.444     863.951
  C      -13.312     -58.450     864.866
  O      -12.471     -58.621     863.728
  O      -10.703     -56.953     864.488
  O      -10.252     -59.460     864.848
  H       -9.951     -56.910     865.105
  H      -14.344     -58.345     864.500
  H      -13.040     -57.535     865.414
  H      -13.247     -59.327     865.511
  H       -4.198     -60.101     857.041
  H       -5.738     -60.739     857.563
  H       -4.261     -61.308     858.303

 3  4  5  6  7  8  9  10  11  12  13  23  27  28  29  30  32 0
 6-311+G(2d,p)
 ****
 34  35 0
 6-311+G(2d,p)
 ****
 1  2  14  15  16  17  18  19  20  21  22  24  25  26 0
 3-21G
 ****
 31  33  36  37  38  39  40  41  42  43  44  45  46 0
 3-21G
 ****


