%nproc=1
%NoSave
%Mem=1900MB
#P OB98/GEN NMR

erre ene a

0 1
  C     -694.586    -893.160    -274.998
  O     -694.242    -893.330    -273.638
  H     -695.541    -893.660    -275.184
  H     -693.817    -893.620    -275.639
  H     -694.685    -892.100    -275.240
  P     -692.952    -892.520    -273.111
  C     -694.204    -891.450    -271.073
  O     -693.176    -892.310    -271.539
  C     -694.691    -891.870    -269.686
  O     -695.406    -893.110    -269.800
  C     -693.539    -892.060    -268.675
  O     -693.994    -891.650    -267.391
  C     -693.333    -893.580    -268.679
  O     -692.726    -894.030    -267.477
  C     -694.769    -894.080    -268.893
  N     -694.811    -895.440    -269.431
  C     -694.505    -896.490    -268.536
  O     -694.195    -896.230    -267.371
  N     -694.500    -897.760    -269.005
  C     -694.739    -897.990    -270.263
  N     -694.693    -899.300    -270.659
  C     -695.026    -896.930    -271.246
  C     -695.069    -895.700    -270.758
  O     -693.191    -891.080    -273.737
  O     -691.643    -893.150    -273.481
  H     -693.383    -893.920    -266.733
  H     -694.107    -890.760    -273.645
  H     -695.202    -897.180    -272.282
  H     -695.291    -894.850    -271.399
  H     -695.342    -894.050    -267.958
  H     -692.709    -893.880    -269.508
  H     -692.642    -891.520    -268.955
  H     -695.403    -891.130    -269.323
  H     -694.461    -900.000    -269.958
  H     -695.061    -891.450    -271.756
  H     -694.793    -899.590    -271.620
  H     -693.806    -890.430    -271.050
  P     -693.190    -890.520    -266.601
  C     -694.069    -888.510    -268.002
  O     -693.967    -889.110    -266.707
  O     -691.737    -890.440    -266.870
  O     -693.469    -890.920    -265.063
  H     -692.630    -890.790    -264.561
  H     -694.604    -887.587    -267.926
  H     -694.591    -889.172    -268.662
  H     -693.088    -888.323    -268.387

 6  7  8  9  10  11  12  13  14  15  16  26  30  31  32  33  35 0
 6-311+G(2d,p)
 ****
 37  38 0
 6-311+G(2d,p)
 ****
 1  2  3  4  5  17  18  19  20  21  22  23  24  25 0
 3-21G
 ****
 27  28  29  34  36  39  40  41  42  43  44  45  46 0
 3-21G
 ****


