%nproc=1
%NoSave
%Mem=1900MB
#P OB98/GEN NMR

erre ene a

0 1
  C     -549.122     500.097    -925.386
  O     -549.105     501.498    -925.621
  P     -550.463     502.275    -925.975
  C     -549.634     504.224    -924.486
  O     -550.116     503.841    -925.777
  C     -549.080     505.648    -924.520
  O     -547.709     505.646    -924.978
  C     -549.832     506.600    -925.453
  O     -551.049     507.033    -924.847
  C     -548.797     507.702    -925.631
  O     -548.822     508.632    -924.536
  C     -547.459     506.904    -925.656
  N     -546.955     506.709    -926.992
  C     -545.857     507.503    -927.357
  O     -545.405     508.334    -926.560
  N     -545.323     507.371    -928.613
  C     -545.846     506.556    -929.449
  N     -545.294     506.472    -930.705
  C     -547.032     505.709    -929.135
  C     -547.525     505.829    -927.906
  O     -551.682     501.801    -925.261
  O     -550.558     502.139    -927.575
  H     -548.522     508.118    -923.750
  H     -550.834     501.223    -927.825
  H     -547.446     505.027    -929.865
  H     -548.383     505.273    -927.574
  H     -546.696     507.419    -925.055
  H     -548.968     508.271    -926.554
  H     -550.011     506.110    -926.396
  H     -549.082     506.044    -923.493
  H     -544.516     507.083    -930.880
  H     -548.844     503.525    -924.180
  H     -545.636     505.884    -931.432
  H     -550.459     504.141    -923.760
  P     -552.366     506.157    -925.001
  C     -553.150     506.126    -922.553
  O     -553.404     506.612    -923.863
  O     -552.159     504.679    -925.143
  O     -553.040     506.749    -926.349
  H     -553.337     505.999    -926.901
  H     -553.703     506.718    -921.839
  H     -552.091     506.140    -922.332
  H     -553.513     505.082    -922.491
  H     -548.130     499.760    -925.167
  H     -549.485     499.594    -926.258
  H     -549.763     499.882    -924.557

 3  4  5  6  7  8  9  10  11  12  13  23  27  28  29  30  32 0
 6-311+G(2d,p)
 ****
 34  35 0
 6-311+G(2d,p)
 ****
 1  2  14  15  16  17  18  19  20  21  22  24  25  26 0
 3-21G
 ****
 31  33  36  37  38  39  40  41  42  43  44  45  46 0
 3-21G
 ****


