%nproc=1
%NoSave
%Mem=1900MB
#P OB98/GEN NMR

erre ene a

0 1
  C      144.269    -343.364      42.273
  O      145.428    -343.933      41.695
  H      143.555    -343.139      41.477
  H      144.530    -342.434      42.788
  H      143.809    -344.064      42.976
  P      146.535    -344.504      42.710
  C      147.422    -346.174      40.887
  O      147.695    -345.114      41.787
  C      148.657    -347.056      40.701
  O      149.688    -346.277      40.047
  C      149.236    -347.589      42.014
  O      149.745    -348.903      41.781
  C      150.393    -346.644      42.295
  O      151.372    -347.232      43.147
  C      150.873    -346.327      40.869
  N      151.631    -345.078      40.802
  C      152.861    -345.055      41.463
  O      153.256    -346.048      42.079
  N      153.599    -343.900      41.454
  C      153.123    -342.837      40.886
  N      153.891    -341.715      40.934
  C      151.808    -342.802      40.214
  C      151.129    -343.949      40.200
  O      145.801    -345.797      43.303
  O      146.989    -343.526      43.741
  H      152.198    -346.703      43.085
  H      145.354    -346.332      42.625
  H      151.449    -341.888      39.766
  H      150.160    -344.016      39.723
  H      151.509    -347.138      40.488
  H      150.026    -345.736      42.783
  H      148.501    -347.612      42.823
  H      148.401    -347.876      40.022
  H      154.772    -341.776      41.424
  H      147.109    -345.777      39.917
  H      153.597    -340.820      40.575
  H      146.594    -346.761      41.298
  P      148.813    -350.171      42.070
  C      150.179    -351.854      40.657
  O      149.687    -351.510      41.947
  O      147.510    -350.195      41.349
  O      148.566    -350.073      43.656
  H      147.631    -350.299      43.826
  H      150.741    -352.762      40.720
  H      150.810    -351.069      40.295
  H      149.357    -351.989      39.986

 6  7  8  9  10  11  12  13  14  15  16  26  30  31  32  33  35 0
 6-311+G(2d,p)
 ****
 37  38 0
 6-311+G(2d,p)
 ****
 1  2  3  4  5  17  18  19  20  21  22  23  24  25 0
 3-21G
 ****
 27  28  29  34  36  39  40  41  42  43  44  45  46 0
 3-21G
 ****


