%nproc=1
%NoSave
%Mem=1900MB
#P OB98/GEN NMR

erre ene a

0 1
  C       13.679     -38.223      14.714
  O       12.269     -38.185      14.726
  H       14.022     -38.793      15.581
  H       14.082     -37.210      14.779
  H       14.040     -38.711      13.805
  P       11.546     -37.413      13.517
  C        9.390     -38.869      13.470
  O        9.971     -37.611      13.782
  C        9.364     -39.768      14.710
  O        8.506     -39.171      15.711
  C        8.842     -41.176      14.426
  O        9.657     -42.130      15.109
  C        7.433     -41.171      14.990
  O        6.995     -42.476      15.365
  C        7.552     -40.161      16.137
  N        6.264     -39.553      16.462
  C        5.366     -40.333      17.197
  O        5.671     -41.480      17.529
  N        4.130     -39.820      17.492
  C        3.793     -38.653      17.040
  N        2.545     -38.209      17.347
  C        4.689     -37.815      16.220
  C        5.898     -38.319      15.976
  O       11.839     -38.359      12.262
  O       11.971     -35.996      13.322
  H        6.046     -42.418      15.610
  H       11.635     -37.902      11.411
  H        4.358     -36.856      15.852
  H        6.622     -37.774      15.380
  H        7.949     -40.646      17.039
  H        6.739     -40.792      14.229
  H        8.832     -41.420      13.364
  H       10.372     -39.796      15.138
  H        1.955     -38.815      17.902
  H        9.980     -39.347      12.682
  H        2.167     -37.330      17.024
  H        8.368     -38.714      13.110
  P       10.547     -43.089      14.178
  C       12.052     -43.849      16.146
  O       11.158     -44.241      15.116
  O       11.811     -42.183      13.807
  O        9.825     -43.584      12.969
  H       11.705     -41.798      12.917
  H       12.376     -44.714      16.685
  H       11.554     -43.178      16.814
  H       12.900     -43.359      15.715

 6  7  8  9  10  11  12  13  14  15  16  26  30  31  32  33  35 0
 6-311+G(2d,p)
 ****
 37  38 0
 6-311+G(2d,p)
 ****
 1  2  3  4  5  17  18  19  20  21  22  23  24  25 0
 3-21G
 ****
 27  28  29  34  36  39  40  41  42  43  44  45  46 0
 3-21G
 ****


