%nproc=1
%NoSave
%Mem=1900MB
#P OB98/GEN NMR

erre ene a

0 1
  C     -203.590      52.535     -32.099
  O     -204.254      52.352     -33.352
  P     -203.517      51.608     -34.569
  C     -202.188      49.530     -33.882
  O     -203.466      50.030     -34.261
  C     -202.205      48.045     -33.494
  O     -203.385      47.726     -32.713
  C     -202.173      47.069     -34.677
  O     -201.436      45.931     -34.222
  C     -203.639      46.732     -34.858
  O     -203.838      45.536     -35.602
  C     -204.111      46.689     -33.397
  N     -205.554      46.864     -33.276
  C     -206.350      45.741     -33.506
  O     -205.837      44.676     -33.853
  N     -207.715      45.859     -33.387
  C     -208.238      47.023     -33.154
  N     -209.595      47.083     -33.070
  C     -207.441      48.253     -32.990
  C     -206.119      48.098     -33.051
  O     -202.207      52.206     -34.964
  O     -204.569      51.711     -35.776
  H     -204.673      45.122     -35.300
  H     -204.085      51.739     -36.623
  H     -207.923      49.205     -32.825
  H     -205.447      48.940     -32.939
  H     -203.839      45.731     -32.932
  H     -204.143      47.545     -35.395
  H     -201.720      47.493     -35.576
  H     -201.340      47.868     -32.843
  H     -210.108      46.221     -33.215
  H     -201.824      50.117     -33.031
  H     -210.108      47.949     -33.009
  H     -201.485      49.691     -34.706
  P     -200.029      45.516     -34.863
  C     -198.547      47.495     -34.201
  O     -198.890      46.148     -33.931
  O     -199.886      45.828     -36.318
  O     -199.898      43.941     -34.590
  H     -199.218      43.568     -35.183
  H     -197.932      47.876     -33.382
  H     -199.444      48.116     -34.287
  H     -197.976      47.552     -35.132
  H     -204.241      53.048     -31.422
  H     -202.702      53.113     -32.247
  H     -203.330      51.581     -31.690

 3  4  5  6  7  8  9  10  11  12  13  23  27  28  29  30  32 0
 6-311+G(2d,p)
 ****
 34  35 0
 6-311+G(2d,p)
 ****
 1  2  14  15  16  17  18  19  20  21  22  24  25  26 0
 3-21G
 ****
 31  33  36  37  38  39  40  41  42  43  44  45  46 0
 3-21G
 ****


