%nproc=1
%NoSave
%Mem=1900MB
#P OB98/GEN NMR

erre ene a

0 1
  C     -430.184     173.670     389.752
  O     -429.085     174.257     389.085
  P     -429.073     175.831     388.796
  C     -430.021     175.304     386.462
  O     -430.134     176.119     387.628
  C     -429.945     176.172     385.207
  O     -431.016     177.144     385.201
  C     -428.658     176.985     385.094
  O     -427.580     176.163     384.682
  C     -429.073     178.053     384.094
  O     -428.983     177.547     382.750
  C     -430.539     178.300     384.476
  N     -431.182     183.360     384.308
  C     -430.873     182.457     383.354
  N     -430.680     181.123     383.481
  C     -430.813     180.757     384.769
  C     -431.088     181.565     385.860
  C     -431.299     182.928     385.593
  N     -431.673     183.849     386.550
  N     -431.106     180.819     387.019
  C     -430.841     179.590     386.639
  N     -430.721     179.487     385.281
  O     -427.724     176.434     388.586
  O     -429.782     176.461     390.085
  H     -429.485     176.712     382.720
  H     -429.160     177.064     390.530
  H     -430.783     182.852     382.349
  H     -430.742     178.740     387.302
  H     -431.181     178.405     383.596
  H     -428.442     178.946     384.144
  H     -428.434     177.460     386.057
  H     -430.067     175.522     384.332
  H     -430.905     174.655     386.409
  H     -431.944     184.763     386.221
  H     -432.058     183.503     387.429
  H     -429.127     174.677     386.544
  P     -426.167     176.279     385.424
  C     -424.951     177.985     383.949
  O     -425.626     177.766     385.173
  O     -425.191     175.183     385.130
  O     -426.554     176.300     386.980
  H     -425.848     175.874     387.500
  H     -423.935     177.596     384.014
  H     -424.903     179.065     383.764
  H     -425.476     177.506     383.118
  H     -430.018     172.618     389.856
  H     -431.076     173.836     389.184
  H     -430.291     174.112     390.721

 3  4  5  6  7  8  9  10  11  12  22  25  29  30  31  32 0
 6-311+G(2d,p)
 ****
 33  36  37 0
 6-311+G(2d,p)
 ****
 1  2  13  14  15  16  17  18  19  20  21  23  24  26 0
 3-21G
 ****
 27  28  34  35  38  39  40  41  42  43  44  45  46  47  48 0
 3-21G
 ****


