%nproc=1
%NoSave
%Mem=1900MB
#P OB98/GEN NMR

erre ene a

0 1
  C     -595.004    -437.471    -287.009
  O     -595.554    -436.341    -287.653
  P     -594.616    -435.341    -288.486
  C     -596.021    -435.848    -290.592
  O     -594.719    -435.841    -290.016
  C     -596.139    -434.756    -291.672
  O     -595.281    -435.064    -292.787
  C     -597.540    -434.619    -292.246
  O     -598.384    -433.913    -291.353
  C     -597.245    -433.874    -293.553
  O     -597.104    -432.466    -293.329
  C     -595.900    -434.499    -293.973
  N     -596.044    -435.501    -295.020
  C     -596.325    -435.000    -296.298
  O     -596.458    -433.795    -296.481
  N     -596.483    -435.896    -297.334
  C     -596.394    -437.171    -297.092
  N     -596.577    -438.002    -298.156
  C     -596.142    -437.738    -295.755
  C     -595.969    -436.846    -294.776
  O     -593.230    -435.191    -287.965
  O     -595.457    -433.983    -288.502
  H     -598.004    -432.130    -293.144
  H     -595.421    -433.521    -287.624
  H     -596.080    -438.809    -295.609
  H     -595.778    -437.175    -293.762
  H     -595.212    -433.722    -294.323
  H     -598.039    -434.016    -294.291
  H     -597.955    -435.605    -292.467
  H     -595.818    -433.809    -291.224
  H     -596.790    -437.582    -299.051
  H     -596.755    -435.651    -289.798
  H     -596.565    -439.013    -298.076
  H     -596.232    -436.830    -291.016
  P     -599.952    -434.238    -291.315
  C     -599.896    -435.004    -288.868
  O     -600.197    -435.363    -290.204
  O     -600.586    -434.503    -292.636
  O     -600.594    -432.927    -290.645
  H     -601.390    -432.669    -291.141
  H     -600.389    -435.711    -288.195
  H     -600.224    -433.993    -288.644
  H     -598.810    -435.081    -288.708
  H     -595.781    -438.010    -286.510
  H     -594.274    -437.154    -286.294
  H     -594.540    -438.105    -287.735

 3  4  5  6  7  8  9  10  11  12  13  23  27  28  29  30  32 0
 6-311+G(2d,p)
 ****
 34  35 0
 6-311+G(2d,p)
 ****
 1  2  14  15  16  17  18  19  20  21  22  24  25  26 0
 3-21G
 ****
 31  33  36  37  38  39  40  41  42  43  44  45  46 0
 3-21G
 ****


