%nproc=1
%NoSave
%Mem=1900MB
#P OB98/GEN NMR

erre ene a

0 1
  C      221.623    -126.454     310.119
  O      221.731    -127.780     309.626
  P      220.516    -128.350     308.743
  C      219.851    -129.697     310.862
  O      219.410    -128.903     309.768
  C      219.468    -131.164     310.660
  O      220.072    -131.955     311.724
  C      217.956    -131.442     310.684
  O      217.716    -132.505     309.756
  C      217.737    -131.901     312.116
  O      216.514    -132.584     312.326
  C      219.005    -132.722     312.331
  N      217.754    -135.521     316.427
  C      217.333    -135.570     315.138
  N      217.719    -134.793     314.103
  C      218.646    -133.902     314.495
  C      219.155    -133.728     315.767
  C      218.668    -134.588     316.764
  N      219.092    -134.533     318.080
  N      220.068    -132.695     315.797
  C      220.112    -132.253     314.557
  N      219.282    -132.966     313.729
  O      221.127    -129.682     308.105
  O      220.004    -127.407     307.696
  H      216.428    -133.314     311.684
  H      220.829    -129.801     307.182
  H      216.588    -136.325     314.909
  H      220.709    -131.420     314.209
  H      218.955    -133.692     311.824
  H      217.730    -131.024     312.771
  H      217.352    -130.574     310.398
  H      219.899    -131.508     309.713
  H      219.372    -129.340     311.778
  H      218.544    -135.054     318.748
  H      219.612    -133.715     318.360
  H      220.934    -129.584     310.983
  P      216.755    -132.234     308.495
  C      214.931    -133.695     309.569
  O      215.274    -132.411     309.102
  O      216.931    -133.602     307.683
  O      217.036    -131.003     307.712
  H      216.798    -134.381     308.255
  H      213.944    -133.649     310.036
  H      215.660    -134.041     310.312
  H      214.889    -134.400     308.731
  H      222.498    -126.212     310.685
  H      220.760    -126.376     310.746
  H      221.530    -125.775     309.298

 3  4  5  6  7  8  9  10  11  12  22  25  29  30  31  32 0
 6-311+G(2d,p)
 ****
 33  36  37 0
 6-311+G(2d,p)
 ****
 1  2  13  14  15  16  17  18  19  20  21  23  24  26 0
 3-21G
 ****
 27  28  34  35  38  39  40  41  42  43  44  45  46  47  48 0
 3-21G
 ****


