%nproc=1
%NoSave
%Mem=1900MB
#P OB98/GEN NMR

erre ene a

0 1
  C     -120.418     878.354    -119.665
  O     -120.549     879.672    -119.169
  H     -121.156     878.201    -120.454
  H     -120.597     877.627    -118.867
  H     -119.418     878.212    -120.085
  P     -119.570     880.087    -117.970
  C     -117.836     880.743    -119.772
  O     -118.097     879.986    -118.598
  C     -117.224     882.097    -119.418
  O     -115.983     881.915    -118.724
  C     -116.928     882.986    -120.619
  O     -118.096     883.682    -121.024
  C     -115.892     883.933    -120.023
  O     -116.556     884.966    -119.267
  C     -115.098     883.017    -119.074
  N     -110.159     882.025    -118.097
  C     -111.088     882.721    -117.410
  N     -112.364     882.996    -117.754
  C     -112.666     882.445    -118.945
  C     -111.824     881.709    -119.766
  C     -110.510     881.494    -119.295
  N     -109.568     880.779    -120.006
  N     -112.478     881.313    -120.913
  C     -113.705     881.753    -120.759
  N     -113.861     882.476    -119.601
  O     -119.785     879.372    -116.679
  O     -119.813     881.673    -117.910
  H     -116.993     885.548    -119.913
  H     -119.876     882.040    -118.813
  H     -110.757     883.125    -116.456
  H     -114.529     881.564    -121.446
  H     -114.841     883.527    -118.138
  H     -115.288     884.433    -120.785
  H     -116.470     882.424    -121.437
  H     -117.915     882.599    -118.721
  H     -118.758     880.888    -120.349
  H     -108.613     880.842    -119.687
  H     -109.797     880.500    -120.947
  H     -117.140     880.165    -120.395
  P     -118.545     883.727    -122.562
  C     -120.731     882.370    -122.495
  O     -119.336     882.348    -122.787
  O     -117.446     884.002    -123.521
  O     -119.702     884.825    -122.603
  H     -119.861     885.109    -123.522
  H     -121.150     881.403    -122.681
  H     -121.214     883.093    -123.118
  H     -120.876     882.630    -121.467

 6  7  8  9  10  11  12  13  14  15  25  28  32  33  34  35 0
 6-311+G(2d,p)
 ****
 36  39  40 0
 6-311+G(2d,p)
 ****
 1  2  3  4  5  16  17  18  19  20  21  22  23  24 0
 3-21G
 ****
 26  27  29  30  31  37  38  41  42  43  44  45  46  47 0
 3-21G
 ****
 48 0
 3-21G
 ****


