%nproc=1
%NoSave
%Mem=1900MB
#P OB98/GEN NMR

erre ene a

0 1
  C     -294.317    -179.874    -300.852
  O     -295.252    -179.952    -301.914
  P     -296.814    -179.913    -301.544
  C     -297.097    -182.354    -302.406
  O     -297.274    -181.438    -301.340
  C     -298.291    -183.314    -302.495
  O     -298.203    -184.264    -301.399
  C     -299.668    -182.640    -302.397
  O     -300.568    -183.410    -303.202
  C     -300.026    -182.804    -300.928
  O     -301.425    -182.698    -300.689
  C     -299.435    -184.178    -300.648
  N     -301.266    -185.934    -296.263
  C     -301.885    -185.809    -297.502
  N     -303.147    -186.276    -297.586
  N     -301.311    -185.284    -298.550
  C     -300.040    -184.873    -298.314
  C     -299.339    -184.905    -297.134
  C     -299.969    -185.525    -295.990
  O     -299.428    -185.734    -294.903
  N     -298.108    -184.312    -297.260
  C     -298.038    -184.002    -298.543
  N     -299.168    -184.363    -299.228
  O     -297.500    -179.489    -302.931
  O     -297.190    -179.000    -300.411
  H     -301.888    -183.149    -301.422
  H     -297.631    -178.521    -302.973
  H     -301.750    -186.373    -295.501
  H     -297.196    -183.522    -299.027
  H     -300.090    -184.997    -300.970
  H     -299.522    -182.022    -300.342
  H     -303.640    -186.725    -296.824
  H     -299.662    -181.592    -302.720
  H     -303.610    -186.228    -298.491
  H     -298.207    -183.882    -303.429
  H     -296.191    -182.940    -302.223
  H     -296.971    -181.811    -303.351
  P     -301.708    -182.624    -304.008
  C     -303.713    -183.194    -302.469
  O     -302.842    -182.196    -302.967
  O     -302.413    -183.799    -304.857
  O     -301.209    -181.548    -304.918
  H     -302.735    -183.435    -305.702
  H     -304.134    -182.851    -301.517
  H     -303.190    -184.139    -302.309
  H     -304.529    -183.346    -303.180
  H     -293.324    -179.911    -301.248
  H     -294.466    -180.697    -300.184
  H     -294.455    -178.955    -300.322

 3  4  5  6  7  8  9  10  11  12  23  26  30  31 0
 6-311+G(2d,p)
 ****
 33  35  36  37  38 0
 6-311+G(2d,p)
 ****
 1  2  13  14  15  16  17  18  19  20  21  22  24  25 0
 3-21G
 ****
 27  28  29  32  34  39  40  41  42  43  44  45  46  47  48  49 0
 3-21G
 ****


