%nproc=1
%NoSave
%Mem=1900MB
#P OB98/GEN NMR

erre ene a

0 1
  C      -26.482      24.457      37.231
  O      -25.431      25.047      37.970
  H      -26.743      25.120      36.403
  H      -27.361      24.320      37.865
  H      -26.161      23.494      36.827
  P      -24.974      24.276      39.304
  C      -25.336      26.515      40.592
  O      -25.650      25.135      40.483
  C      -26.601      27.317      40.875
  O      -27.458      27.345      39.711
  C      -27.469      26.757      41.998
  O      -26.972      27.050      43.293
  C      -28.768      27.487      41.713
  O      -28.653      28.860      42.133
  C      -28.835      27.377      40.175
  N      -29.560      26.188      39.717
  C      -30.853      26.394      39.222
  O      -31.339      27.522      39.184
  N      -31.584      25.305      38.812
  C      -31.065      24.118      38.869
  N      -31.837      23.079      38.451
  C      -29.704      23.857      39.371
  C      -29.016      24.923      39.773
  O      -23.425      24.654      39.438
  O      -25.262      22.814      39.347
  H      -29.504      29.287      41.922
  H      -23.078      24.349      40.312
  H      -29.319      22.848      39.411
  H      -28.007      24.810      40.154
  H      -29.308      28.264      39.737
  H      -29.626      27.067      42.238
  H      -27.635      25.681      41.879
  H      -26.301      28.351      41.084
  H      -32.788      23.283      38.169
  H      -24.887      26.841      39.648
  H      -31.582      22.111      38.596
  H      -24.617      26.674      41.401
  P      -26.383      25.826      44.149
  C      -28.077      26.596      45.969
  O      -27.449      25.509      45.302
  O      -25.165      26.490      44.943
  O      -25.946      24.644      43.340
  H      -24.435      25.852      45.061
  H      -28.756      26.219      46.705
  H      -28.615      27.188      45.258
  H      -27.333      27.199      46.446

 6  7  8  9  10  11  12  13  14  15  16  26  30  31  32  33  35 0
 6-311+G(2d,p)
 ****
 37  38 0
 6-311+G(2d,p)
 ****
 1  2  3  4  5  17  18  19  20  21  22  23  24  25 0
 3-21G
 ****
 27  28  29  34  36  39  40  41  42  43  44  45  46 0
 3-21G
 ****


