%nproc=1
%NoSave
%Mem=1900MB
#P OB98/GEN NMR

erre ene a

0 1
  C     -138.388     277.055     314.304
  O     -137.656     276.559     315.400
  P     -137.771     277.141     316.880
  C     -137.023     274.832     317.854
  O     -136.865     276.245     317.853
  C     -135.864     274.146     318.592
  O     -134.673     274.249     317.773
  C     -135.551     274.846     319.925
  O     -135.274     273.955     320.998
  C     -134.457     275.834     319.541
  O     -133.684     276.285     320.643
  C     -133.701     275.060     318.466
  N     -129.910     278.345     317.667
  C     -130.151     277.547     318.768
  N     -129.389     277.793     319.857
  N     -131.077     276.624     318.802
  C     -131.833     276.574     317.681
  C     -131.686     277.310     316.527
  C     -130.640     278.303     316.491
  O     -130.461     279.111     315.579
  N     -132.677     277.037     315.619
  C     -133.443     276.160     316.236
  N     -132.988     275.872     317.502
  O     -139.138     277.520     317.347
  O     -136.900     278.495     316.766
  H     -134.169     277.022     321.060
  H     -137.315     279.154     317.356
  H     -129.231     279.096     317.730
  H     -134.348     275.724     315.828
  H     -132.959     274.390     318.905
  H     -134.947     276.718     319.114
  H     -128.774     278.590     319.907
  H     -136.425     275.404     320.279
  H     -129.707     277.402     320.741
  H     -136.094     273.084     318.718
  H     -137.036     274.523     316.803
  H     -137.982     274.552     318.297
  P     -135.847     273.974     322.485
  C     -135.995     271.438     322.837
  O     -135.367     272.642     323.236
  O     -137.421     273.748     322.333
  O     -135.577     275.238     323.241
  H     -137.898     274.313     322.971
  H     -135.795     270.672     323.593
  H     -135.586     271.111     321.881
  H     -137.080     271.572     322.750
  H     -138.135     276.500     313.425
  H     -138.150     278.087     314.154
  H     -139.435     276.955     314.500

 3  4  5  6  7  8  9  10  11  12  23  26  30  31 0
 6-311+G(2d,p)
 ****
 33  35  36  37  38 0
 6-311+G(2d,p)
 ****
 1  2  13  14  15  16  17  18  19  20  21  22  24  25 0
 3-21G
 ****
 27  28  29  32  34  39  40  41  42  43  44  45  46  47  48  49 0
 3-21G
 ****


