%nproc=1
%NoSave
%Mem=1900MB
#P OB98/GEN NMR

erre ene a

0 1
  C      270.623      26.863     436.521
  O      269.682      27.416     435.618
  H      271.617      27.244     436.270
  H      270.631      25.772     436.443
  H      270.378      27.168     437.543
  P      268.158      26.953     435.797
  C      267.472      25.080     434.135
  O      268.150      25.407     435.342
  C      268.369      25.341     432.929
  O      269.626      24.660     433.084
  C      267.790      24.860     431.600
  O      266.899      25.837     431.073
  C      269.056      24.746     430.755
  O      269.424      26.052     430.264
  C      270.096      24.253     431.770
  N      271.555      20.176     429.002
  C      271.261      21.449     428.637
  N      270.825      22.467     429.420
  C      270.709      22.068     430.702
  C      270.971      20.806     431.208
  C      271.414      19.830     430.299
  N      271.706      18.532     430.665
  N      270.737      20.767     432.572
  C      270.400      22.002     432.883
  N      270.334      22.822     431.783
  O      267.133      27.830     435.159
  O      268.055      26.841     437.393
  H      268.811      26.264     429.536
  H      268.868      26.444     437.759
  H      271.385      21.681     427.585
  H      270.216      22.365     433.895
  H      271.072      24.727     431.614
  H      268.917      24.104     429.882
  H      267.327      23.876     431.688
  H      268.588      26.418     432.898
  H      266.549      25.672     434.050
  H      271.830      17.857     429.924
  H      271.485      18.250     431.608
  H      267.197      24.020     434.190
  P      265.714      25.414     430.068
  C      266.093      26.484     427.762
  O      266.395      25.387     428.611
  O      264.481      26.237     430.189
  O      265.465      23.864     430.379
  H      264.602      23.584     430.015
  H      266.597      26.360     426.826
  H      266.417      27.393     428.224
  H      265.037      26.526     427.595

 6  7  8  9  10  11  12  13  14  15  25  28  32  33  34  35 0
 6-311+G(2d,p)
 ****
 36  39  40 0
 6-311+G(2d,p)
 ****
 1  2  3  4  5  16  17  18  19  20  21  22  23  24 0
 3-21G
 ****
 26  27  29  30  31  37  38  41  42  43  44  45  46  47 0
 3-21G
 ****
 48 0
 3-21G
 ****


