%nproc=1
%NoSave
%Mem=1900MB
#P OB98/GEN NMR

erre ene a

0 1
  C     -628.234     772.470    -412.668
  O     -628.401     773.351    -411.588
  P     -627.381     774.564    -411.320
  C     -628.662     776.012    -413.025
  O     -627.408     775.422    -412.673
  C     -628.530     777.542    -412.980
  O     -627.466     777.934    -413.872
  C     -629.773     778.308    -413.475
  O     -630.774     778.497    -412.490
  C     -629.147     779.652    -413.839
  O     -628.918     780.428    -412.630
  C     -627.796     779.233    -414.443
  N     -625.981     781.150    -418.813
  C     -625.720     781.446    -417.525
  N     -626.250     780.895    -416.409
  C     -627.120     779.931    -416.740
  C     -627.504     779.518    -418.018
  C     -626.884     780.194    -419.083
  N     -627.146     779.880    -420.418
  N     -628.438     778.522    -417.938
  C     -628.607     778.309    -416.647
  N     -627.848     779.145    -415.888
  O     -626.037     774.134    -410.853
  O     -628.135     775.504    -410.273
  H     -628.469     781.250    -412.901
  H     -627.505     776.108    -409.846
  H     -624.958     782.223    -417.351
  H     -629.308     777.587    -416.245
  H     -626.975     779.924    -414.161
  H     -629.763     780.274    -414.476
  H     -630.188     777.874    -414.389
  H     -628.272     777.848    -411.967
  H     -629.394     775.703    -412.280
  H     -626.558     780.295    -421.101
  H     -627.680     779.047    -420.603
  H     -628.977     775.667    -414.005
  P     -632.277     778.046    -412.844
  C     -632.821     777.158    -410.445
  O     -632.593     776.856    -411.813
  O     -632.503     777.691    -414.292
  O     -633.166     779.261    -412.338
  H     -633.170     779.383    -411.367
  H     -633.172     776.271    -409.925
  H     -633.558     777.956    -410.327
  H     -631.883     777.473    -409.961
  H     -629.019     771.743    -412.660
  H     -627.289     771.976    -412.582
  H     -628.267     773.020    -413.585

 3  4  5  6  7  8  9  10  11  12  22  25  29  30  31  32 0
 6-311+G(2d,p)
 ****
 33  36  37 0
 6-311+G(2d,p)
 ****
 1  2  13  14  15  16  17  18  19  20  21  23  24  26 0
 3-21G
 ****
 27  28  34  35  38  39  40  41  42  43  44  45  46  47  48 0
 3-21G
 ****


