%nproc=1
%NoSave
%Mem=1900MB
#P OB98/GEN NMR

erre ene a

0 1
  C      -65.246     117.629    -192.607
  O      -66.480     116.926    -192.463
  P      -67.454     117.450    -191.296
  C      -68.427     116.317    -189.176
  O      -67.324     116.428    -190.063
  C      -68.124     115.336    -188.041
  O      -67.899     113.992    -188.564
  C      -66.879     115.710    -187.219
  O      -67.146     115.323    -185.866
  C      -65.811     114.822    -187.835
  O      -64.651     114.696    -187.030
  C      -66.625     113.550    -188.047
  N      -64.104     109.124    -188.333
  C      -64.590     109.821    -187.283
  N      -65.249     110.999    -187.289
  C      -65.393     111.449    -188.548
  C      -64.952     110.855    -189.720
  C      -64.276     109.629    -189.579
  N      -63.756     108.921    -190.641
  N      -65.271     111.636    -190.818
  C      -65.830     112.715    -190.300
  N      -65.998     112.611    -188.948
  O      -68.918     117.168    -191.878
  O      -67.246     118.886    -190.945
  H      -64.902     114.402    -186.131
  H      -69.299     117.988    -192.249
  H      -64.421     109.374    -186.306
  H      -66.128     113.593    -190.854
  H      -66.814     113.018    -187.107
  H      -65.499     115.247    -188.798
  H      -66.640     116.779    -187.245
  H      -69.002     115.286    -187.383
  H      -69.312     115.973    -189.719
  H      -63.284     108.054    -190.442
  H      -63.854     109.271    -191.584
  H      -68.674     117.311    -188.788
  P      -67.103     116.442    -184.715
  C      -65.551     116.900    -182.727
  O      -65.863     116.021    -183.787
  O      -68.342     115.981    -183.810
  O      -67.174     117.859    -185.172
  H      -68.291     115.030    -183.604
  H      -64.749     116.457    -182.130
  H      -66.423     117.050    -182.088
  H      -65.207     117.858    -183.126
  H      -64.681     117.198    -193.407
  H      -64.687     117.558    -191.698
  H      -65.445     118.658    -192.824

 3  4  5  6  7  8  9  10  11  12  22  25  29  30  31  32 0
 6-311+G(2d,p)
 ****
 33  36  37 0
 6-311+G(2d,p)
 ****
 1  2  13  14  15  16  17  18  19  20  21  23  24  26 0
 3-21G
 ****
 27  28  34  35  38  39  40  41  42  43  44  45  46  47  48 0
 3-21G
 ****


