%nproc=1
%NoSave
%Mem=1900MB
#P OB98/GEN NMR

erre ene a

0 1
  C      -30.702     -78.310      63.264
  O      -30.137     -77.471      62.248
  P      -31.122     -76.863      61.138
  C      -29.386     -76.992      59.202
  O      -30.238     -76.173      59.990
  C      -27.942     -76.486      59.270
  O      -27.350     -76.734      60.561
  C      -27.012     -77.151      58.267
  O      -27.119     -76.554      56.983
  C      -25.652     -76.847      58.876
  O      -25.264     -75.496      58.556
  C      -25.935     -76.975      60.378
  N      -22.365     -79.726      62.812
  C      -22.375     -78.448      62.373
  N      -23.356     -77.792      61.717
  C      -24.421     -78.589      61.537
  C      -24.556     -79.912      61.928
  C      -23.464     -80.487      62.597
  N      -23.461     -81.790      63.043
  N      -25.790     -80.407      61.561
  C      -26.396     -79.395      60.972
  N      -25.605     -78.279      60.925
  O      -31.786     -75.615      61.890
  O      -32.157     -77.826      60.656
  H      -24.473     -75.294      59.091
  H      -32.708     -75.503      61.592
  H      -21.474     -77.875      62.576
  H      -27.398     -79.423      60.568
  H      -25.393     -76.227      60.970
  H      -24.865     -77.503      58.497
  H      -27.179     -78.235      58.236
  H      -27.955     -75.401      59.099
  H      -29.730     -77.002      58.164
  H      -22.652     -82.123      63.539
  H      -24.287     -82.355      62.905
  H      -29.457     -78.025      59.559
  P      -26.982     -77.522      55.710
  C      -25.287     -76.085      54.363
  O      -26.612     -76.567      54.478
  O      -28.496     -77.959      55.425
  O      -26.088     -78.698      55.923
  H      -28.516     -78.853      55.031
  H      -25.134     -75.721      53.342
  H      -24.559     -76.876      54.566
  H      -25.133     -75.256      55.060
  H      -29.929     -78.637      63.927
  H      -31.165     -79.160      62.808
  H      -31.435     -77.758      63.815

 3  4  5  6  7  8  9  10  11  12  22  25  29  30  31  32 0
 6-311+G(2d,p)
 ****
 33  36  37 0
 6-311+G(2d,p)
 ****
 1  2  13  14  15  16  17  18  19  20  21  23  24  26 0
 3-21G
 ****
 27  28  34  35  38  39  40  41  42  43  44  45  46  47  48 0
 3-21G
 ****


