%nproc=1
%NoSave
%Mem=1900MB
#P OB98/GEN NMR

erre ene a

0 1
  C      -55.577      10.427     142.225
  O      -54.344      10.894     142.744
  P      -54.179      10.894     144.343
  C      -52.712       8.784     144.806
  O      -54.007       9.363     144.777
  C      -52.330       8.451     146.249
  O      -53.373       7.679     146.878
  C      -51.054       7.631     146.384
  O      -49.915       8.468     146.302
  C      -51.249       6.988     147.752
  O      -50.897       7.905     148.805
  C      -52.757       6.697     147.756
  N      -52.755       1.811     149.045
  C      -52.167       2.894     149.669
  N      -51.523       2.642     150.829
  N      -52.209       4.114     149.201
  C      -52.876       4.213     148.027
  C      -53.487       3.215     147.306
  C      -53.477       1.881     147.861
  O      -54.065       0.908     147.399
  N      -54.042       3.697     146.149
  C      -53.793       4.990     146.190
  N      -53.107       5.359     147.318
  O      -55.641      11.286     144.857
  O      -53.119      11.807     144.873
  H      -51.118       7.506     149.666
  H      -55.687      12.236     145.078
  H      -52.704       0.898     149.462
  H      -54.106       5.702     145.442
  H      -53.200       6.832     148.750
  H      -50.621       6.104     147.886
  H      -51.428       1.725     151.237
  H      -51.016       6.852     145.613
  H      -51.081       3.423     151.298
  H      -52.239       9.396     146.798
  H      -51.991       9.498     144.398
  H      -52.708       7.882     144.186
  P      -49.025       8.381     144.970
  C      -50.059      10.431     143.760
  O      -49.883       9.028     143.785
  O      -49.022       6.816     144.633
  O      -47.637       8.908     145.118
  H      -48.156       6.564     144.262
  H      -50.167      10.753     142.722
  H      -49.210      10.954     144.209
  H      -50.969      10.688     144.308
  H      -55.557      10.479     141.156
  H      -56.374      11.037     142.596
  H      -55.731       9.413     142.530

 3  4  5  6  7  8  9  10  11  12  23  26  30  31 0
 6-311+G(2d,p)
 ****
 33  35  36  37  38 0
 6-311+G(2d,p)
 ****
 1  2  13  14  15  16  17  18  19  20  21  22  24  25 0
 3-21G
 ****
 27  28  29  32  34  39  40  41  42  43  44  45  46  47  48  49 0
 3-21G
 ****


