%nproc=1
%NoSave
%Mem=1900MB
#P OB98/GEN NMR

erre ene a

0 1
  C     1142.543    1248.330    -135.821
  O     1142.088    1247.017    -136.176
  P     1140.581    1246.515    -135.947
  C     1141.517    1244.287    -135.072
  O     1140.557    1244.913    -135.891
  C     1141.976    1242.925    -135.654
  O     1142.710    1243.146    -136.865
  C     1142.903    1242.119    -134.746
  O     1142.179    1241.513    -133.710
  C     1143.519    1241.160    -135.765
  O     1142.656    1240.037    -136.012
  C     1143.671    1242.057    -137.009
  N     1145.003    1242.543    -137.204
  C     1145.772    1241.890    -138.212
  O     1145.277    1240.915    -138.810
  N     1147.038    1242.325    -138.453
  C     1147.540    1243.274    -137.742
  N     1148.813    1243.692    -138.066
  C     1146.814    1243.942    -136.653
  C     1145.579    1243.530    -136.445
  O     1139.590    1247.112    -136.884
  O     1140.237    1246.937    -134.435
  H     1141.812    1240.414    -136.304
  H     1139.284    1247.134    -134.373
  H     1147.293    1244.713    -136.064
  H     1144.970    1243.948    -135.645
  H     1143.330    1241.496    -137.899
  H     1144.484    1240.757    -135.409
  H     1143.693    1242.772    -134.341
  H     1141.089    1242.361    -135.889
  H     1149.280    1243.225    -138.828
  H     1141.074    1244.106    -134.079
  H     1149.298    1244.411    -137.567
  H     1142.381    1244.955    -134.932
  P     1142.950    1240.831    -132.479
  C     1141.256    1238.929    -132.182
  O     1141.873    1240.064    -131.591
  O     1143.881    1241.723    -131.736
  O     1143.771    1239.620    -133.161
  H     1144.586    1239.479    -132.671
  H     1140.870    1238.284    -131.380
  H     1141.961    1238.364    -132.783
  H     1140.414    1239.267    -132.803
  H     1143.579    1248.428    -136.069
  H     1142.412    1248.481    -134.770
  H     1141.977    1249.061    -136.359

 3  4  5  6  7  8  9  10  11  12  13  23  27  28  29  30  32 0
 6-311+G(2d,p)
 ****
 34  35 0
 6-311+G(2d,p)
 ****
 1  2  14  15  16  17  18  19  20  21  22  24  25  26 0
 3-21G
 ****
 31  33  36  37  38  39  40  41  42  43  44  45  46 0
 3-21G
 ****


