%nproc=1
%NoSave
%Mem=1900MB
#P OB98/GEN NMR

erre ene a

0 1
  C     -419.864    -560.714      55.615
  O     -420.407    -560.949      54.324
  P     -419.920    -562.269      53.561
  C     -417.614    -563.018      52.594
  O     -418.452    -561.956      53.008
  C     -416.207    -562.492      52.299
  O     -415.670    -561.832      53.471
  C     -415.202    -563.567      51.915
  O     -415.338    -563.897      50.553
  C     -413.882    -562.884      52.264
  O     -413.481    -561.979      51.212
  C     -414.241    -562.117      53.550
  N     -410.918    -562.625      57.325
  C     -410.827    -561.911      56.156
  N     -409.694    -561.183      55.976
  N     -411.757    -561.897      55.227
  C     -412.820    -562.677      55.531
  C     -413.024    -563.449      56.650
  C     -412.015    -563.403      57.689
  O     -412.100    -563.946      58.795
  N     -414.220    -564.122      56.595
  C     -414.749    -563.724      55.452
  N     -413.950    -562.836      54.769
  O     -420.840    -562.287      52.250
  O     -420.028    -563.539      54.344
  H     -412.688    -561.494      51.502
  H     -421.597    -562.896      52.361
  H     -410.189    -562.580      58.011
  H     -415.711    -564.037      55.079
  H     -413.728    -561.159      53.611
  H     -413.071    -563.605      52.387
  H     -408.924    -561.164      56.627
  H     -415.334    -564.458      52.549
  H     -409.606    -560.659      55.112
  H     -416.296    -561.736      51.513
  H     -418.027    -563.466      51.688
  H     -417.588    -563.788      53.385
  P     -414.416    -565.082      49.979
  C     -411.872    -565.356      49.551
  O     -412.955    -564.469      49.729
  O     -414.985    -565.322      48.501
  O     -414.452    -566.338      50.786
  H     -414.947    -566.267      48.287
  H     -411.131    -564.876      48.893
  H     -412.188    -566.302      49.084
  H     -411.409    -565.572      50.512
  H     -420.268    -559.806      56.012
  H     -418.800    -560.629      55.544
  H     -420.115    -561.529      56.261

 3  4  5  6  7  8  9  10  11  12  23  26  30  31 0
 6-311+G(2d,p)
 ****
 33  35  36  37  38 0
 6-311+G(2d,p)
 ****
 1  2  13  14  15  16  17  18  19  20  21  22  24  25 0
 3-21G
 ****
 27  28  29  32  34  39  40  41  42  43  44  45  46  47  48  49 0
 3-21G
 ****


