%nproc=1
%NoSave
%Mem=1900MB
#P OB98/GEN NMR

erre ene a

0 1
  C     -467.687    -882.107     300.619
  O     -466.635    -881.339     300.067
  H     -467.518    -883.161     300.368
  H     -468.653    -881.796     300.192
  H     -467.706    -881.997     301.704
  P     -466.719    -879.749     300.290
  C     -465.715    -879.435     297.937
  O     -465.583    -879.150     299.320
  C     -464.344    -879.657     297.297
  O     -463.560    -878.447     297.434
  C     -463.547    -880.796     297.950
  O     -462.821    -881.506     296.942
  C     -462.562    -880.073     298.856
  O     -461.388    -880.836     299.112
  C     -462.320    -878.775     298.074
  N     -458.326    -875.919     299.479
  C     -458.488    -876.835     298.499
  N     -459.581    -877.532     298.180
  C     -460.624    -877.188     298.979
  C     -460.616    -876.276     300.029
  C     -459.389    -875.642     300.268
  N     -459.214    -874.729     301.293
  N     -461.856    -876.240     300.636
  C     -462.600    -877.088     299.959
  N     -461.899    -877.695     298.956
  O     -466.656    -879.290     301.705
  O     -468.067    -879.372     299.505
  H     -461.649    -881.643     299.601
  H     -468.117    -879.837     298.645
  H     -457.597    -877.018     297.879
  H     -463.654    -877.301     300.156
  H     -461.544    -878.893     297.305
  H     -463.049    -879.852     299.816
  H     -464.181    -881.481     298.501
  H     -464.479    -879.836     296.223
  H     -466.220    -878.600     297.428
  H     -458.308    -874.297     301.402
  H     -459.999    -874.490     301.897
  H     -466.334    -880.331     297.829
  P     -463.261    -883.010     296.628
  C     -460.986    -884.117     296.025
  O     -462.242    -883.621     295.528
  O     -464.697    -883.244     296.340
  O     -462.809    -883.794     297.962
  H     -463.473    -884.482     298.157
  H     -460.403    -884.492     295.210
  H     -461.166    -884.904     296.727
  H     -460.455    -883.323     296.508

 6  7  8  9  10  11  12  13  14  15  25  28  32  33  34  35 0
 6-311+G(2d,p)
 ****
 36  39  40 0
 6-311+G(2d,p)
 ****
 1  2  3  4  5  16  17  18  19  20  21  22  23  24 0
 3-21G
 ****
 26  27  29  30  31  37  38  41  42  43  44  45  46  47 0
 3-21G
 ****
 48 0
 3-21G
 ****


