%nproc=1
%NoSave
%Mem=1900MB
#P OB98/GEN NMR

erre ene a

0 1
  C       24.698     194.515    -228.323
  O       25.870     194.952    -229.031
  P       26.624     193.921    -230.007
  C       29.207     194.328    -230.090
  O       27.925     194.643    -230.610
  C       30.199     195.446    -230.425
  O       30.240     195.674    -231.853
  C       29.854     196.795    -229.815
  O       30.177     196.852    -228.436
  C       30.693     197.736    -230.673
  O       32.050     197.791    -230.201
  C       30.623     197.054    -232.054
  N       29.713     197.731    -232.972
  C       30.198     198.880    -233.587
  O       31.305     199.358    -233.347
  N       29.346     199.487    -234.470
  C       28.063     199.105    -234.741
  O       27.342     199.703    -235.530
  C       27.579     197.932    -233.998
  C       28.411     197.313    -233.158
  O       25.644     193.891    -231.278
  O       26.829     192.546    -229.465
  H       32.445     196.916    -230.386
  H       25.723     193.029    -231.728
  H       29.689     200.305    -234.950
  H       26.559     197.610    -234.167
  H       28.069     196.444    -232.604
  H       31.621     197.023    -232.510
  H       30.310     198.761    -230.665
  H       28.793     197.017    -229.974
  H       31.200     195.121    -230.104
  H       29.557     193.393    -230.535
  H       29.130     194.194    -229.007
  P       29.484     198.023    -227.581
  C       31.593     198.855    -226.281
  O       30.369     198.155    -226.253
  O       28.135     197.298    -227.113
  O       29.277     199.276    -228.365
  H       28.263     196.345    -226.963
  H       31.563     199.689    -226.987
  H       32.396     198.169    -226.563
  H       31.797     199.247    -225.281
  H       24.324     195.318    -227.723
  H       24.949     193.687    -227.694
  H       23.948     194.215    -229.025

 3  4  5  6  7  8  9  10  11  12  13  23  28  29  30  31  32 0
 6-311+G(2d,p)
 ****
 33  34 0
 6-311+G(2d,p)
 ****
 1  2  14  15  16  17  18  19  20  21  22  24  25  26 0
 3-21G
 ****
 27  35  36  37  38  39  40  41  42  43  44  45 0
 3-21G
 ****


