%nproc=1
%NoSave
%Mem=1900MB
#P OB98/GEN NMR

erre ene a

0 1
  C       19.898    -147.033     110.217
  O       19.782    -146.147     109.103
  P       20.123    -144.603     109.385
  C       22.657    -144.246     108.950
  O       21.338    -144.182     108.425
  C       23.597    -143.334     108.159
  O       24.772    -142.973     108.911
  C       24.105    -143.962     106.868
  O       23.114    -143.865     105.860
  C       25.340    -143.119     106.579
  O       24.993    -141.899     105.892
  C       25.877    -142.809     107.985
  N       30.574    -144.364     106.879
  C       29.684    -143.623     106.124
  N       30.117    -143.221     104.910
  N       28.480    -143.309     106.522
  C       28.182    -143.777     107.758
  C       28.987    -144.495     108.612
  C       30.317    -144.840     108.157
  O       31.148    -145.473     108.796
  N       28.359    -144.740     109.807
  C       27.135    -144.279     109.621
  N       26.995    -143.628     108.420
  O       20.774    -144.632     110.846
  O       18.928    -143.711     109.332
  H       24.492    -141.324     106.500
  H       20.166    -144.218     111.488
  H       31.487    -144.586     106.519
  H       26.326    -144.366     110.330
  H       26.213    -141.768     108.066
  H       26.047    -143.644     105.931
  H       31.033    -143.426     104.539
  H       24.394    -145.005     107.044
  H       29.483    -142.670     104.343
  H       23.045    -142.411     107.931
  H       23.025    -145.273     108.915
  H       22.629    -143.956     110.006
  P       22.934    -145.110     104.866
  C       21.892    -146.765     106.575
  O       21.708    -145.984     105.410
  O       24.220    -146.013     105.180
  O       22.871    -144.746     103.420
  H       24.609    -146.328     104.343
  H       20.935    -146.855     107.095
  H       22.625    -146.317     107.253
  H       22.234    -147.764     106.288
  H       19.648    -148.027     109.910
  H       19.230    -146.721     110.992
  H       20.903    -147.015     110.584

 3  4  5  6  7  8  9  10  11  12  23  26  30  31 0
 6-311+G(2d,p)
 ****
 33  35  36  37  38 0
 6-311+G(2d,p)
 ****
 1  2  13  14  15  16  17  18  19  20  21  22  24  25 0
 3-21G
 ****
 27  28  29  32  34  39  40  41  42  43  44  45  46  47  48  49 0
 3-21G
 ****


