%nproc=1
%NoSave
%Mem=1900MB
#P OB98/GEN NMR

erre ene a

0 1
  C     -898.540     966.014     310.725
  O     -897.500     966.415     311.606
  H     -898.130     965.302     310.011
  H     -898.920     966.884     310.186
  H     -899.340     965.532     311.287
  P     -897.910     967.461     312.757
  C     -897.830     965.844     314.808
  O     -897.230     966.922     314.106
  C     -896.790     965.116     315.673
  O     -895.920     964.346     314.801
  C     -895.880     966.063     316.481
  O     -895.470     965.375     317.674
  C     -894.700     966.218     315.547
  O     -893.600     966.792     316.226
  C     -894.560     964.787     315.059
  N     -889.820     964.992     313.172
  C     -890.290     965.116     314.425
  N     -891.560     965.029     314.859
  C     -892.400     964.783     313.831
  C     -892.070     964.634     312.499
  C     -890.700     964.744     312.166
  N     -890.210     964.645     310.884
  N     -893.200     964.403     311.729
  C     -894.200     964.406     312.602
  N     -893.760     964.638     313.868
  O     -899.470     967.172     312.985
  O     -897.650     968.895     312.443
  H     -892.860     966.985     315.618
  H     -900.000     967.790     312.456
  H     -889.530     965.289     315.193
  H     -895.240     964.249     312.355
  H     -894.140     964.133     315.837
  H     -894.940     966.898     314.718
  H     -896.380     967.017     316.750
  H     -897.310     964.405     316.325
  H     -898.260     965.144     314.071
  H     -898.640     966.221     315.442
  H     -889.230     964.752     310.724
  H     -890.870     964.474     310.123
  P     -895.590     966.130     319.101
  C     -897.150     964.332     320.209
  O     -895.910     965.035     320.222
  O     -897.000     966.871     318.964
  O     -894.500     967.092     319.412
  H     -897.010     967.672     319.516
  H     -897.180     963.647     321.030
  H     -897.244     963.792     319.290
  H     -897.956     965.030     320.296

 6  7  8  9  10  11  12  13  14  15  25  28  32  33  34  35 0
 6-311+G(2d,p)
 ****
 36  37  40 0
 6-311+G(2d,p)
 ****
 1  2  3  4  5  16  17  18  19  20  21  22  23  24 0
 3-21G
 ****
 26  27  29  30  31  38  39 41  42  43  44  45  46  47  48 0
 3-21G
 ****


