%nproc=1
%NoSave
%Mem=1900MB
#P OB98/GEN NMR

erre ene a

0 1
  C     1148.677    -890.410    -545.441
  O     1148.646    -891.550    -546.272
  H     1148.048    -889.630    -545.885
  H     1149.699    -890.020    -545.357
  H     1148.299    -890.660    -544.441
  P     1149.595    -892.770    -545.860
  C     1150.982    -892.530    -548.056
  O     1150.190    -893.380    -547.221
  C     1151.732    -893.390    -549.079
  O     1152.786    -894.130    -548.414
  C     1150.861    -894.430    -549.768
  O     1150.076    -893.890    -550.815
  C     1151.929    -895.390    -550.300
  O     1152.460    -894.940    -551.566
  C     1152.999    -895.340    -549.199
  N     1152.976    -896.550    -548.373
  C     1153.353    -897.710    -548.993
  O     1153.677    -897.770    -550.204
  N     1153.300    -898.860    -548.255
  C     1152.870    -898.920    -546.962
  O     1152.800    -900.000    -546.351
  C     1152.466    -897.670    -546.331
  C     1152.542    -896.530    -547.058
  O     1148.564    -893.890    -545.356
  O     1150.615    -892.460    -544.821
  H     1148.587    -893.960    -544.395
  H     1153.237    -895.510    -551.731
  H     1153.564    -899.720    -548.697
  H     1152.108    -897.690    -545.304
  H     1152.229    -895.590    -546.624
  H     1154.002    -895.240    -549.646
  H     1151.523    -896.390    -550.455
  H     1150.247    -894.960    -549.027
  H     1152.192    -892.730    -549.813
  H     1151.707    -892.000    -547.433
  H     1150.327    -891.810    -548.542
  P     1148.573    -894.460    -550.985
  C     1149.046    -894.700    -553.569
  O     1148.187    -894.240    -552.524
  O     1147.742    -893.350    -550.197
  O     1148.415    -895.870    -550.469
  H     1148.189    -892.480    -550.197
  H     1148.614    -894.459    -554.518
  H     1149.166    -895.760    -553.491
  H     1150.001    -894.225    -553.481

 6  7  8  9  10  11  12  13  14  15  16  27  31  32  33  34  35 0
 6-311+G(2d,p)
 ****
 36  37 0
 6-311+G(2d,p)
 ****
 1  2  3  4  5  17  18  19  20  21  22  23  24  25 0
 3-21G
 ****
 26  28  29  30  38  39  40  41  42  43  44  45 0
 3-21G
 ****


