%nproc=1
%NoSave
%Mem=1900MB
#P OB98/GEN NMR

erre ene a

0 1
  C      188.816     391.360    -312.727
  O      189.459     391.351    -311.451
  P      188.657     390.844    -310.165
  C      190.197     388.852    -309.571
  O      189.671     390.107    -309.162
  C      191.727     388.884    -309.524
  O      192.283     389.580    -310.665
  C      192.267     389.638    -308.313
  O      192.081     389.032    -307.051
  C      193.694     389.947    -308.734
  O      194.562     388.840    -308.496
  C      193.524     390.188    -310.256
  N      193.564     391.606    -310.608
  C      194.823     392.138    -310.868
  O      195.860     391.484    -310.771
  N      194.854     393.460    -311.215
  C      193.778     394.292    -311.292
  O      193.868     395.479    -311.583
  C      192.477     393.684    -310.981
  C      192.427     392.390    -310.662
  O      187.389     390.112    -310.441
  O      188.342     392.217    -309.384
  H      194.617     388.719    -307.530
  H      187.430     392.159    -309.038
  H      195.759     393.857    -311.416
  H      191.599     394.314    -311.025
  H      191.476     391.918    -310.430
  H      194.319     389.680    -310.815
  H      194.098     390.798    -308.182
  H      191.741     390.598    -308.255
  H      192.098     387.854    -309.552
  H      189.854     388.614    -310.583
  H      189.796     388.069    -308.918
  P      192.455     389.752    -305.666
  C      189.978     389.737    -304.894
  O      191.318     389.399    -304.593
  O      192.916     391.169    -305.737
  O      193.675     388.839    -305.158
  H      194.300     389.411    -304.664
  H      189.348     389.444    -304.048
  H      189.639     389.203    -305.783
  H      189.879     390.814    -305.040
  H      189.497     391.727    -313.467
  H      187.955     391.994    -312.688
  H      188.515     390.365    -312.982

 3  4  5  6  7  8  9  10  11  12  13  23  28  29  30  31  32 0
 6-311+G(2d,p)
 ****
 33  34 0
 6-311+G(2d,p)
 ****
 1  2  14  15  16  17  18  19  20  21  22  24  25  26  27 0
 3-21G
 ****
 35  36  37  38  39  40  41  42  43  44  45 0
 3-21G
 ****


