%nproc=1
%NoSave
%Mem=1900MB
#P OB98/GEN NMR

erre ene a

0 1
  C      266.299      -1.460    -172.337
  O      265.808      -0.283    -172.945
  H      265.615      -2.294    -172.522
  H      267.272      -1.703    -172.772
  H      266.418      -1.309    -171.261
  P      264.362       0.227    -172.470
  C      263.336       0.735    -170.134
  O      264.382       0.115    -170.869
  C      262.712      -0.285    -169.187
  O      262.051      -1.325    -169.945
  C      263.724      -1.000    -168.299
  O      264.079      -0.240    -167.157
  C      262.936      -2.240    -167.914
  O      261.969      -1.908    -166.902
  C      262.231      -2.581    -169.237
  N      262.034      -6.930    -171.931
  C      261.088      -6.249    -171.246
  N      261.216      -5.088    -170.575
  C      262.472      -4.625    -170.660
  C      263.540      -5.204    -171.325
  C      263.286      -6.420    -171.983
  N      264.254      -7.133    -172.654
  N      264.682      -4.442    -171.170
  C      264.302      -3.414    -170.439
  N      262.984      -3.495    -170.078
  O      263.379      -0.960    -172.901
  O      263.936       1.558    -172.991
  H      261.334      -2.648    -166.863
  H      262.450      -0.663    -172.864
  H      260.099      -6.699    -171.236
  H      264.942      -2.595    -170.137
  H      261.240      -3.023    -169.083
  H      263.569      -3.033    -167.506
  H      264.613      -1.303    -168.867
  H      261.951       0.224    -168.585
  H      262.578       1.101    -170.832
  H      264.010      -8.061    -172.963
  H      265.216      -6.839    -172.574
  H      263.742       1.578    -169.565
  P      265.401      -0.680    -166.354
  C      267.919      -0.766    -166.980
  O      266.575      -0.792    -167.442
  O      265.097      -2.205    -165.979
  O      265.703       0.150    -165.152
  H      265.514      -2.444    -165.130
  H      268.584      -0.849    -167.814
  H      268.082      -1.585    -166.311
  H      268.102       0.155    -166.468

 6  7  8  9  10  11  12  13  14  15  25  28  32  33  34  35 0
 6-311+G(2d,p)
 ****
 36  39  40 0
 6-311+G(2d,p)
 ****
 1  2  3  4  5  16  17  18  19  20  21  22  23  24 0
 3-21G
 ****
 26  27  29  30  31  37  38  41  42  43  44  45  46  47 0
 3-21G
 ****
 48 0
 3-21G
 ****


