%nproc=1
%NoSave
%Mem=1900MB
#P OB98/GEN NMR

erre ene a

0 1
  C       46.241    -295.110      74.780
  O       46.495    -295.405      73.423
  H       47.029    -295.561      75.391
  H       45.280    -295.535      75.079
  H       46.241    -294.030      74.948
  P       45.571    -294.665      72.339
  C       43.903    -296.259      71.148
  O       44.182    -295.473      72.296
  C       44.642    -297.592      71.226
  O       44.483    -298.179      72.541
  C       44.157    -298.639      70.229
  O       44.739    -298.459      68.945
  C       44.663    -299.910      70.890
  O       46.079    -300.050      70.657
  C       44.394    -299.622      72.374
  N       41.467    -303.677      73.225
  C       42.751    -303.600      72.716
  N       43.334    -304.768      72.376
  N       43.401    -302.478      72.549
  C       42.691    -301.387      72.922
  C       41.415    -301.336      73.437
  C       40.707    -302.582      73.625
  O       39.578    -302.709      74.091
  N       41.034    -300.045      73.703
  C       42.064    -299.315      73.329
  N       43.097    -300.082      72.841
  O       46.262    -295.044      70.942
  O       45.452    -293.186      72.501
  H       46.194    -300.195      69.701
  H       46.182    -294.283      70.336
  H       41.006    -304.567      73.321
  H       42.119    -298.237      73.397
  H       45.149    -300.074      73.031
  H       44.186    -300.811      70.501
  H       42.871    -305.663      72.432
  H       43.058    -298.668      70.178
  H       44.286    -304.740      72.033
  H       45.713    -297.392      71.086
  H       44.229    -295.716      70.251
  H       42.821    -296.429      71.087
  P       43.987    -299.117      67.687
  C       45.400    -301.013      66.604
  O       44.490    -300.642      67.638
  O       44.722    -298.443      66.436
  O       42.512    -298.909      67.655
  H       44.140    -298.475      65.654
  H       45.644    -302.051      66.699
  H       46.292    -300.428      66.687
  H       44.947    -300.839      65.651

 6  7  8  9  10  11  12  13  14  15  26  29  33  34 0
 6-311+G(2d,p)
 ****
 36  38  39  40  41 0
 6-311+G(2d,p)
 ****
 1  2  3  4  5  16  17  18  19  20  21  22  23  24  25 0
 3-21G
 ****
 27  28  30  31  32  35  37  42  43  44  45  46  47 0
 3-21G
 ****
 48  49 0
 3-21G
 ****


