%nproc=1
%NoSave
%Mem=1900MB
#P OB98/GEN NMR

erre ene a

0 1
  C     -496.448    -505.612    -270.841
  O     -496.084    -505.117    -269.571
  H     -495.564    -505.602    -271.488
  H     -497.222    -504.983    -271.292
  H     -496.809    -506.640    -270.753
  P     -497.256    -504.995    -268.483
  C     -496.255    -505.965    -266.316
  O     -496.487    -504.791    -267.086
  C     -495.053    -506.734    -266.869
  O     -493.953    -505.805    -267.061
  C     -494.560    -507.852    -265.941
  O     -494.111    -508.953    -266.736
  C     -493.373    -507.217    -265.243
  O     -492.455    -508.191    -264.743
  C     -492.815    -506.326    -266.355
  N     -488.037    -504.896    -265.335
  C     -488.540    -505.945    -266.022
  N     -489.837    -506.238    -266.267
  C     -490.639    -505.281    -265.763
  C     -490.277    -504.157    -265.046
  C     -488.895    -503.984    -264.819
  N     -488.373    -502.941    -264.092
  N     -491.390    -503.447    -264.661
  C     -492.418    -504.121    -265.155
  N     -492.008    -505.246    -265.812
  O     -498.263    -506.096    -268.499
  O     -497.834    -503.532    -268.776
  H     -491.712    -507.722    -264.309
  H     -497.114    -502.879    -268.872
  H     -487.811    -506.641    -266.419
  H     -493.463    -503.845    -265.050
  H     -492.186    -506.881    -267.064
  H     -493.711    -506.611    -264.394
  H     -495.318    -508.187    -265.238
  H     -495.319    -507.127    -267.863
  H     -497.141    -506.606    -266.323
  H     -487.372    -502.893    -263.986
  H     -488.995    -502.248    -263.710
  H     -496.061    -505.654    -265.282
  P     -495.094    -510.189    -266.975
  C     -494.555    -510.858    -269.407
  O     -494.410    -511.194    -268.035
  O     -496.515    -509.846    -267.265
  O     -494.970    -511.013    -265.603
  H     -495.863    -511.326    -265.334
  H     -494.063    -511.594    -270.008
  H     -494.117    -509.899    -269.587
  H     -495.594    -510.829    -269.659

 6  7  8  9  10  11  12  13  14  15  25  28  32  33  34  35 0
 6-311+G(2d,p)
 ****
 36  39  40 0
 6-311+G(2d,p)
 ****
 1  2  3  4  5  16  17  18  19  20  21  22  23  24 0
 3-21G
 ****
 26  27  29  30  31  37  38  41  42  43  44  45  46  47 0
 3-21G
 ****
 48 0
 3-21G
 ****


