%nproc=1
%NoSave
%Mem=1900MB
#P OB98/GEN NMR

erre ene a

0 1
  C       86.369     -54.561      18.189
  O       85.922     -54.803      19.524
  P       85.494     -56.286      19.951
  C       83.021     -56.185      19.229
  O       84.292     -56.774      19.005
  C       82.014     -56.618      18.151
  O       80.733     -55.975      18.390
  C       82.466     -56.257      16.730
  O       82.409     -57.360      15.826
  C       81.599     -55.062      16.374
  O       81.451     -54.881      14.974
  C       80.319     -55.323      17.175
  N       79.573     -54.089      17.435
  C       78.278     -54.025      16.937
  O       77.780     -54.911      16.242
  N       77.584     -52.877      17.211
  C       78.078     -51.779      17.851
  O       77.431     -50.756      18.030
  C       79.476     -51.879      18.300
  C       80.146     -53.011      18.074
  O       85.279     -56.506      21.410
  O       86.724     -57.176      19.422
  H       82.340     -54.732      14.585
  H       86.894     -57.875      20.083
  H       76.636     -52.824      16.871
  H       79.908     -51.020      18.791
  H       81.179     -53.106      18.382
  H       79.649     -56.000      16.634
  H       82.081     -54.158      16.768
  H       83.520     -55.956      16.711
  H       81.881     -57.700      18.247
  H       83.115     -55.099      19.208
  H       82.673     -56.442      20.236
  P       83.680     -58.202      15.342
  C       84.053     -57.051      13.050
  O       84.543     -57.286      14.355
  O       83.394     -59.575      14.835
  O       84.586     -58.279      16.661
  H       84.981     -59.168      16.728
  H       84.887     -56.746      12.413
  H       83.318     -56.242      13.078
  H       83.595     -57.950      12.629
  H       86.613     -53.525      18.077
  H       85.593     -54.822      17.500
  H       87.237     -55.155      17.990

 3  4  5  6  7  8  9  10  11  12  13  23  28  29  30  31  32 0
 6-311+G(2d,p)
 ****
 33  34 0
 6-311+G(2d,p)
 ****
 1  2  14  15  16  17  18  19  20  21  22  24  25  26  27 0
 3-21G
 ****
 35  36  37  38  39  40  41  42  43  44  45 0
 3-21G
 ****


