%nproc=1
%NoSave
%Mem=1900MB
#P OB98/GEN NMR

erre ene a

0 1
  C     -449.654    -432.142     361.225
  O     -448.500    -432.940     361.063
  H     -450.373    -432.394     360.442
  H     -449.405    -431.079     361.141
  H     -450.116    -432.339     362.197
  P     -447.223    -432.655     361.987
  C     -445.147    -432.537     360.470
  O     -445.975    -433.366     361.272
  C     -445.107    -433.042     359.023
  O     -444.428    -434.328     358.999
  C     -446.500    -433.230     358.402
  O     -446.432    -432.852     357.025
  C     -446.725    -434.721     358.535
  O     -447.663    -435.196     357.589
  C     -445.308    -435.284     358.381
  N     -445.191    -436.609     358.985
  C     -445.354    -437.705     358.129
  O     -445.576    -437.523     356.927
  N     -445.345    -438.969     358.656
  C     -445.233    -439.132     359.938
  N     -445.260    -440.411     360.398
  C     -445.077    -438.006     360.882
  C     -445.065    -436.791     360.344
  O     -447.378    -432.973     363.439
  O     -446.934    -431.096     361.758
  H     -447.789    -436.167     357.716
  H     -447.415    -430.563     362.420
  H     -444.992    -438.196     361.943
  H     -444.969    -435.900     360.961
  H     -445.030    -435.356     357.321
  H     -447.113    -434.950     359.535
  H     -447.278    -432.648     358.910
  H     -444.503    -432.353     358.426
  H     -445.395    -441.150     359.713
  H     -444.135    -432.557     360.892
  H     -445.223    -440.659     361.376
  H     -445.518    -431.507     360.493
  P     -446.518    -431.307     356.598
  C     -448.835    -430.829     357.574
  O     -448.063    -430.911     356.379
  O     -445.614    -430.919     355.472
  O     -446.124    -430.514     357.936
  H     -445.693    -429.673     357.695
  H     -449.842    -430.562     357.330
  H     -448.415    -430.086     358.220
  H     -448.827    -431.777     358.069

 6  7  8  9  10  11  12  13  14  15  16  26  30  31  32  33  35 0
 6-311+G(2d,p)
 ****
 37  38 0
 6-311+G(2d,p)
 ****
 1  2  3  4  5  17  18  19  20  21  22  23  24  25 0
 3-21G
 ****
 27  28  29  34  36  39  40  41  42  43  44  45  46 0
 3-21G
 ****


