%nproc=1
%NoSave
%Mem=1900MB
#P OB98/GEN NMR

erre ene a

0 1
  C      -69.720      67.418      84.485
  O      -69.689      66.369      85.433
  H      -70.608      67.296      83.859
  H      -68.834      67.393      83.846
  H      -69.783      68.382      84.996
  P      -68.345      66.161      86.287
  C      -67.392      64.317      84.757
  O      -67.244      65.653      85.231
  C      -66.051      63.583      84.741
  O      -65.299      63.921      83.556
  C      -65.133      63.940      85.900
  O      -65.590      63.522      87.165
  C      -63.787      63.447      85.394
  O      -63.605      62.047      85.604
  C      -63.900      63.745      83.879
  N      -63.106      64.901      83.480
  C      -61.854      64.625      82.945
  O      -61.402      63.486      82.823
  N      -61.109      65.712      82.579
  C      -61.469      67.018      82.736
  O      -60.745      67.950      82.405
  C      -62.788      67.249      83.344
  C      -63.538      66.197      83.681
  O      -68.476      65.285      87.497
  O      -67.868      67.651      86.618
  H      -62.789      61.792      85.133
  H      -67.194      67.657      87.341
  H      -60.202      65.532      82.174
  H      -63.102      68.273      83.495
  H      -64.517      66.342      84.130
  H      -63.555      62.880      83.295
  H      -62.952      63.958      85.880
  H      -65.060      65.034      85.955
  H      -66.254      62.508      84.710
  H      -67.788      64.367      83.737
  H      -68.108      63.782      85.390
  P      -65.389      64.365      88.503
  C      -63.304      63.091      89.434
  O      -63.841      64.302      88.917
  O      -66.411      64.174      89.575
  O      -65.529      65.879      87.958
  H      -65.951      66.401      88.669
  H      -62.266      63.227      89.656
  H      -63.415      62.313      88.708
  H      -63.827      62.822      90.328

 6  7  8  9  10  11  12  13  14  15  16  26  31  32  33  34  35 0
 6-311+G(2d,p)
 ****
 36  37 0
 6-311+G(2d,p)
 ****
 1  2  3  4  5  17  18  19  20  21  22  23  24  25 0
 3-21G
 ****
 27  28  29  30  38  39  40  41  42  43  44  45 0
 3-21G
 ****


