%nproc=1
%NoSave
%Mem=1900MB
#P OB98/GEN NMR

erre ene a

0 1
  C     -198.229     105.168     -25.852
  O     -198.585     105.807     -24.647
  P     -197.859     105.540     -23.251
  C     -199.213     103.379     -22.650
  O     -197.944     103.969     -22.925
  C     -199.093     102.282     -21.582
  O     -198.446     101.125     -22.178
  C     -198.202     102.740     -20.409
  O     -198.692     102.365     -19.127
  C     -196.823     102.219     -20.809
  O     -195.922     102.107     -19.715
  C     -197.182     100.919     -21.522
  N     -192.686      98.674     -22.337
  C     -193.438      98.724     -21.175
  N     -192.834      98.270     -20.059
  N     -194.654      99.203     -21.124
  C     -195.085      99.718     -22.297
  C     -194.432      99.730     -23.510
  C     -193.104      99.172     -23.565
  O     -192.350      99.215     -24.538
  N     -195.150     100.404     -24.469
  C     -196.215     100.834     -23.829
  N     -196.211     100.469     -22.505
  O     -198.148     106.499     -22.148
  O     -196.303     105.710     -23.650
  H     -195.104     101.700     -20.049
  H     -195.847     106.093     -22.877
  H     -191.717      98.365     -22.297
  H     -197.013     101.427     -24.269
  H     -197.295     100.093     -20.813
  H     -196.389     102.941     -21.499
  H     -191.849      98.032     -20.038
  H     -198.167     103.828     -20.353
  H     -193.259      98.518     -19.172
  H     -200.095     101.984     -21.259
  H     -199.564     102.942     -23.595
  H     -199.935     104.143     -22.347
  P     -198.752     103.225     -17.783
  C     -196.711     101.894     -16.965
  O     -197.320     103.172     -17.078
  O     -199.667     102.373     -16.788
  O     -199.310     104.600     -17.948
  H     -200.246     102.984     -16.278
  H     -195.893     101.950     -16.250
  H     -196.306     101.604     -17.944
  H     -197.432     101.147     -16.632
  H     -198.862     105.516     -26.641
  H     -198.345     104.110     -25.742
  H     -197.210     105.393     -26.087

 3  4  5  6  7  8  9  10  11  12  23  26  30  31 0
 6-311+G(2d,p)
 ****
 33  35  36  37  38 0
 6-311+G(2d,p)
 ****
 1  2  13  14  15  16  17  18  19  20  21  22  24  25 0
 3-21G
 ****
 27  28  29  32  34  39  40  41  42  43  44  45  46  47  48  49 0
 3-21G
 ****


