%nproc=1
%NoSave
%Mem=1900MB
#P OB98/GEN NMR

erre ene a

0 1
  C      375.724     368.850    -350.277
  O      376.403     370.048    -349.924
  P      375.500     371.289    -349.441
  C      375.840     372.668    -351.603
  O      376.016     372.617    -350.206
  C      375.865     374.123    -352.117
  O      374.944     374.950    -351.349
  C      377.242     374.780    -352.035
  O      377.360     375.684    -353.139
  C      377.163     375.589    -350.752
  O      378.149     376.617    -350.703
  C      375.708     376.061    -350.821
  N      376.561     379.035    -346.753
  C      377.264     378.836    -347.901
  N      376.983     378.012    -348.924
  C      375.811     377.370    -348.705
  C      374.995     377.463    -347.586
  C      375.410     378.340    -346.574
  N      374.718     378.513    -345.397
  N      373.917     376.609    -347.701
  C      374.075     376.022    -348.885
  N      375.189     376.470    -349.526
  O      375.962     371.513    -347.928
  O      374.031     371.032    -349.539
  H      378.171     376.968    -349.792
  H      375.259     371.228    -347.319
  H      378.172     379.419    -348.003
  H      373.425     375.257    -349.290
  H      375.579     376.922    -351.504
  H      377.306     374.929    -349.894
  H      378.086     374.080    -352.019
  H      375.513     374.133    -353.162
  H      374.883     372.211    -351.890
  H      375.114     379.143    -344.707
  H      373.895     377.969    -345.231
  H      376.612     372.075    -352.091
  P      377.631     375.035    -354.581
  C      379.480     376.662    -355.398
  O      378.138     376.218    -355.526
  O      376.157     374.706    -355.118
  O      378.500     373.820    -354.537
  H      376.194     373.975    -355.764
  H      379.874     376.856    -356.407
  H      380.119     375.927    -354.898
  H      379.495     377.594    -354.832
  H      376.437     368.111    -350.577
  H      375.052     369.046    -351.086
  H      375.172     368.491    -349.433

 3  4  5  6  7  8  9  10  11  12  22  25  29  30  31  32 0
 6-311+G(2d,p)
 ****
 33  36  37 0
 6-311+G(2d,p)
 ****
 1  2  13  14  15  16  17  18  19  20  21  23  24  26 0
 3-21G
 ****
 27  28  34  35  38  39  40  41  42  43  44  45  46  47  48 0
 3-21G
 ****


