%nproc=1
%NoSave
%Mem=1900MB
#P OB98/GEN NMR

erre ene a

0 1
  C      295.527    1051.838      82.460
  O      296.389    1051.551      83.535
  P      296.636    1052.632      84.686
  C      299.138    1052.761      85.310
  O      297.884    1052.144      85.581
  C      300.231    1052.194      86.227
  O      299.856    1052.326      87.623
  C      300.500    1050.713      86.011
  O      301.195    1050.463      84.808
  C      301.252    1050.374      87.290
  O      302.648    1050.766      87.183
  C      300.531    1051.261      88.329
  N      299.625    1050.498      89.163
  C      300.233    1049.691      90.148
  O      301.449    1049.577      90.197
  N      299.417    1049.020      91.034
  C      298.124    1049.063      90.879
  N      297.365    1048.439      91.822
  C      297.462    1049.768      89.766
  C      298.255    1050.486      88.976
  O      295.424    1053.033      85.468
  O      297.240    1053.897      83.900
  H      296.768    1054.697      84.168
  H      303.051    1050.180      86.489
  H      296.368    1049.729      89.650
  H      297.864    1051.069      88.141
  H      301.270    1051.768      88.964
  H      301.240    1049.305      87.513
  H      299.538    1050.165      86.003
  H      301.137    1052.778      86.056
  H      297.850    1047.959      92.569
  H      299.042    1053.848      85.485
  H      296.393    1048.660      91.993
  H      299.398    1052.598      84.261
  P      300.724    1049.190      83.927
  C      303.178    1048.769      83.227
  O      301.834    1048.940      82.814
  O      299.463    1049.749      83.118
  O      300.352    1047.976      84.740
  H      298.775    1049.041      83.015
  H      303.722    1048.259      82.403
  H      303.241    1048.146      84.125
  H      303.631    1049.732      83.411
  H      295.491    1050.998      81.798
  H      295.890    1052.694      81.931
  H      294.545    1052.040      82.834

 3  4  5  6  7  8  9  10  11  12  13  24  27  28  29  30  32 0
 6-311+G(2d,p)
 ****
 34  35 0
 6-311+G(2d,p)
 ****
 1  2  14  15  16  17  18  19  20  21  22  23  25  26 0
 3-21G
 ****
 31  33  36  37  38  39  40  41  42  43  44  45  46 0
 3-21G
 ****


