%nproc=1
%NoSave
%Mem=1900MB
#P OB98/GEN NMR

erre ene a

0 1
  C     -525.201     -77.346    -378.367
  O     -526.015     -78.502    -378.345
  H     -525.029     -77.021    -377.335
  H     -525.703     -76.539    -378.905
  H     -524.233     -77.558    -378.832
  P     -526.285     -79.277    -379.719
  C     -526.912     -81.352    -378.323
  O     -527.285     -80.483    -379.385
  C     -527.796     -82.593    -378.326
  O     -529.156     -82.228    -377.995
  C     -527.884     -83.284    -379.680
  O     -526.706     -84.019    -379.963
  C     -529.138     -84.121    -379.497
  O     -528.852     -85.332    -378.795
  C     -530.024     -83.186    -378.640
  N     -531.046     -82.519    -379.441
  C     -532.363     -82.680    -379.015
  O     -532.684     -83.335    -378.031
  N     -533.321     -82.110    -379.820
  C     -533.097     -81.533    -381.034
  O     -533.995     -81.259    -381.822
  C     -531.688     -81.329    -381.399
  C     -530.737     -81.836    -380.603
  O     -525.065     -79.662    -380.494
  O     -527.208     -78.266    -380.549
  H     -526.664     -77.811    -381.221
  H     -528.197     -85.809    -379.342
  H     -534.282     -82.260    -379.539
  H     -531.470     -80.814    -382.321
  H     -529.694     -81.730    -380.865
  H     -530.521     -83.758    -377.843
  H     -529.586     -84.388    -380.457
  H     -528.063     -82.537    -380.465
  H     -527.429     -83.286    -377.554
  H     -527.032     -80.819    -377.372
  H     -525.856     -81.624    -378.438
  P     -526.095     -84.025    -381.444
  C     -523.904     -83.226    -380.368
  O     -524.498     -84.091    -381.331
  O     -526.612     -82.955    -382.351
  O     -526.468     -85.472    -382.014
  H     -526.887     -85.373    -382.897
  H     -522.842     -83.354    -380.380
  H     -524.281     -83.463    -379.395
  H     -524.143     -82.210    -380.605

 6  7  8  9  10  11  12  13  14  15  16  27  31  32  33  34  35 0
 6-311+G(2d,p)
 ****
 36  37 0
 6-311+G(2d,p)
 ****
 1  2  3  4  5  17  18  19  20  21  22  23  24  25 0
 3-21G
 ****
 26  28  29  30  38  39  40  41  42  43  44  45 0
 3-21G
 ****


