%nproc=1
%NoSave
%Mem=1900MB
#P OB98/GEN NMR

erre ene a

0 1
  C      263.221     102.132     -20.176
  O      262.179     101.162     -20.020
  P      262.391      99.616     -20.389
  C      264.015      97.808     -19.535
  O      263.169      98.900     -19.182
  C      264.724      97.221     -18.307
  O      265.446      98.244     -17.594
  C      263.793      96.576     -17.289
  O      263.401      95.285     -17.718
  C      264.660      96.601     -16.034
  O      265.589      95.503     -16.043
  C      265.402      97.932     -16.190
  N      264.915     100.083     -11.576
  C      265.632      99.024     -12.007
  N      265.707      98.506     -13.250
  C      264.953      99.223     -14.106
  C      264.166     100.326     -13.810
  C      264.160     100.758     -12.474
  N      263.415     101.829     -12.033
  N      263.516     100.778     -14.940
  C      263.920      99.972     -15.903
  N      264.789      99.018     -15.449
  O      263.002      99.385     -21.733
  O      260.926      98.975     -20.317
  H      266.227      95.665     -16.762
  H      260.870      98.211     -20.920
  H      266.226      98.520     -11.247
  H      263.616     100.044     -16.941
  H      266.445      97.855     -15.855
  H      264.072      96.525     -15.113
  H      262.912      97.206     -17.135
  H      265.464      96.492     -18.667
  H      264.764      98.169     -20.251
  H      263.438     102.054     -11.052
  H      262.813     102.309     -12.687
  H      263.407      97.038     -20.017
  P      262.003      95.080     -18.480
  C      261.309      95.316     -20.938
  O      262.332      94.924     -20.039
  O      260.940      96.072     -18.150
  O      261.562      93.596     -18.064
  H      260.588      93.539     -18.065
  H      260.570      94.514     -21.016
  H      261.756      95.485     -21.923
  H      260.827      96.236     -20.605
  H      262.862     103.093     -19.872
  H      263.521     102.172     -21.202
  H      264.059     101.856     -19.570

 3  4  5  6  7  8  9  10  11  12  22  25  29  30  31  32 0
 6-311+G(2d,p)
 ****
 33  36  37 0
 6-311+G(2d,p)
 ****
 1  2  13  14  15  16  17  18  19  20  21  23  24  26 0
 3-21G
 ****
 27  28  34  35  38  39  40  41  42  43  44  45  46  47  48 0
 3-21G
 ****


