%nproc=1
%NoSave
%Mem=1900MB
#P OB98/GEN NMR

erre ene a

0 1
  C     -284.215      54.562      96.114
  O     -283.122      53.680      96.258
  H     -285.089      53.988      95.794
  H     -283.995      55.319      95.357
  H     -284.439      55.043      97.068
  P     -281.715      54.332      96.668
  C     -282.233      54.072      99.199
  O     -281.906      54.953      98.134
  C     -281.901      54.735     100.531
  O     -282.364      53.906     101.622
  C     -280.411      54.930     100.774
  O     -279.894      56.046     100.071
  C     -280.388      55.121     102.281
  O     -280.673      56.482     102.645
  C     -281.512      54.174     102.754
  N     -280.987      52.949     103.347
  C     -280.955      52.916     104.737
  O     -281.339      53.849     105.442
  N     -280.427      51.785     105.297
  C     -279.906      50.723     104.616
  O     -279.382      49.772     105.177
  C     -279.980      50.808     103.148
  C     -280.500      51.904     102.588
  O     -281.622      55.618      95.718
  O     -280.534      53.434      96.516
  H     -281.013      55.440      94.978
  H     -280.656      56.512     103.622
  H     -280.385      51.748     106.303
  H     -279.580      49.979     102.577
  H     -280.546      51.996     101.507
  H     -282.137      54.671     103.507
  H     -279.412      54.881     102.701
  H     -279.863      54.014     100.525
  H     -282.431      55.696     100.582
  H     -281.650      53.151      99.103
  H     -283.298      53.822      99.141
  P     -278.310      56.135      99.836
  C     -278.343      54.524      97.761
  O     -277.886      54.786      99.075
  O     -277.764      55.928     101.324
  O     -277.871      57.394      99.172
  H     -278.301      55.307     101.843
  H     -277.955      53.583      97.429
  H     -278.007      55.300      97.105
  H     -279.412      54.491      97.755

 6  7  8  9  10  11  12  13  14  15  16  27  31  32  33  34  35 0
 6-311+G(2d,p)
 ****
 36  37 0
 6-311+G(2d,p)
 ****
 1  2  3  4  5  17  18  19  20  21  22  23  24  25 0
 3-21G
 ****
 26  28  29  30  38  39  40  41  42  43  44  45 0
 3-21G
 ****


