%nproc=1
%NoSave
%Mem=1900MB
#P OB98/GEN NMR

erre ene a

0 1
  C      -22.394    -528.521     -98.427
  O      -23.325    -528.461     -97.367
  H      -21.997    -527.516     -98.598
  H      -22.883    -528.861     -99.342
  H      -21.563    -529.187     -98.179
  P      -23.935    -529.831     -96.800
  C      -25.211    -530.403     -98.964
  O      -25.312    -530.086     -97.580
  C      -26.599    -530.691     -99.532
  O      -27.160    -531.861     -98.894
  C      -27.606    -529.576     -99.290
  O      -27.386    -528.479    -100.157
  C      -28.914    -530.318     -99.508
  O      -29.224    -530.421    -100.902
  C      -28.597    -531.710     -98.916
  N      -29.166    -531.879     -97.579
  C      -30.467    -532.366     -97.523
  O      -31.126    -532.658     -98.518
  N      -31.017    -532.452     -96.272
  C      -30.455    -531.975     -95.123
  O      -31.077    -531.846     -94.072
  C      -29.058    -531.531     -95.233
  C      -28.489    -531.491     -96.440
  O      -24.021    -529.933     -95.313
  O      -22.967    -530.953     -97.408
  H      -22.346    -531.250     -96.716
  H      -29.446    -529.512    -101.195
  H      -31.977    -532.765     -96.227
  H      -28.553    -531.213     -94.329
  H      -27.471    -531.135     -96.552
  H      -28.989    -532.501     -99.566
  H      -29.747    -529.815     -99.017
  H      -27.554    -529.248     -98.246
  H      -26.497    -530.902    -100.604
  H      -24.580    -531.292     -99.076
  H      -24.743    -529.563     -99.489
  P      -26.899    -527.071     -99.570
  C      -28.949    -526.865     -98.035
  O      -28.188    -526.259     -99.075
  O      -25.974    -526.300    -100.453
  O      -26.174    -527.456     -98.194
  H      -25.297    -527.027     -98.169
  H      -29.779    -526.237     -97.788
  H      -28.332    -526.996     -97.171
  H      -29.308    -527.818     -98.364

 6  7  8  9  10  11  12  13  14  15  16  27  31  32  33  34  35 0
 6-311+G(2d,p)
 ****
 36  37 0
 6-311+G(2d,p)
 ****
 1  2  3  4  5  17  18  19  20  21  22  23  24  25 0
 3-21G
 ****
 26  28  29  30  38  39  40  41  42  43  44  45 0
 3-21G
 ****


