%nproc=1
%NoSave
%Mem=1900MB
#P OB98/GEN NMR

erre ene a

0 1
  C     -270.257     302.720    -123.647
  O     -269.726     303.456    -122.562
  H     -270.469     301.695    -123.335
  H     -271.189     303.192    -123.969
  H     -269.553     302.719    -124.482
  P     -268.358     302.902    -121.931
  C     -269.253     301.054    -120.357
  O     -268.605     301.351    -121.583
  C     -268.675     299.776    -119.753
  O     -267.267     299.999    -119.482
  C     -269.349     299.340    -118.442
  O     -269.719     297.956    -118.503
  C     -268.262     299.505    -117.392
  O     -268.331     298.523    -116.365
  C     -266.984     299.391    -118.215
  N     -262.380     298.635    -116.162
  C     -263.094     297.906    -117.051
  N     -264.271     298.211    -117.632
  C     -264.694     299.426    -117.238
  C     -264.066     300.294    -116.361
  C     -262.860     299.846    -115.793
  N     -262.161     300.564    -114.848
  N     -264.807     301.446    -116.193
  C     -265.890     301.258    -116.926
  N     -265.873     300.045    -117.561
  O     -268.305     303.610    -120.493
  O     -267.137     303.203    -122.734
  H     -268.150     297.656    -116.779
  H     -267.507     304.169    -120.449
  H     -262.663     296.947    -117.324
  H     -266.727     301.942    -116.993
  H     -266.710     298.344    -118.400
  H     -268.358     300.498    -116.935
  H     -270.230     299.941    -118.200
  H     -268.737     298.977    -120.502
  H     -270.326     300.912    -120.534
  H     -261.372     300.118    -114.407
  H     -262.573     301.411    -114.489
  H     -269.120     301.897    -119.667
  P     -271.237     297.610    -118.093
  C     -270.540     296.374    -115.913
  O     -271.293     297.435    -116.497
  O     -271.434     296.123    -118.656
  O     -272.244     298.547    -118.669
  H     -272.197     296.095    -119.263
  H     -270.675     296.383    -114.852
  H     -269.503     296.504    -116.142
  H     -270.877     295.438    -116.307

 6  7  8  9  10  11  12  13  14  15  25  28  32  33  34  35 0
 6-311+G(2d,p)
 ****
 36  39  40 0
 6-311+G(2d,p)
 ****
 1  2  3  4  5  16  17  18  19  20  21  22  23  24 0
 3-21G
 ****
 26  27  29  30  31  37  38  41  42  43  44  45  46  47  48 0
 3-21G
 ****


