%nproc=1
%NoSave
%Mem=1900MB
#P OB98/GEN NMR

erre ene a

0 1
  C      261.161     -18.572      91.745
  O      260.711     -18.624      90.406
  H      261.424     -17.539      91.984
  H      262.045     -19.200      91.880
  H      260.367     -18.895      92.424
  P      260.369     -20.055      89.772
  C      258.377     -21.019      91.111
  O      258.793     -20.282      89.971
  C      257.163     -21.898      90.779
  O      257.035     -22.926      91.799
  C      255.832     -21.125      90.738
  O      254.980     -21.793      89.797
  C      255.329     -21.323      92.153
  O      253.969     -20.984      92.267
  C      255.718     -22.789      92.382
  N      255.701     -23.157      93.789
  C      255.189     -24.420      94.092
  O      254.767     -25.151      93.193
  N      255.134     -24.817      95.402
  C      255.497     -23.991      96.337
  N      255.403     -24.436      97.620
  C      255.988     -22.626      96.067
  C      256.069     -22.279      94.782
  O      261.227     -21.189      90.224
  O      260.502     -19.818      88.193
  H      253.852     -20.006      92.295
  H      261.330     -20.217      87.869
  H      256.260     -21.969      96.880
  H      256.421     -21.295      94.483
  H      255.045     -23.463      91.836
  H      255.872     -20.679      92.850
  H      255.957     -20.076      90.458
  H      257.353     -22.413      89.829
  H      255.046     -25.375      97.762
  H      258.114     -20.299      91.891
  H      255.636     -23.880      98.428
  H      259.199     -21.649      91.474
  P      254.968     -21.441      88.231
  C      257.277     -22.426      87.631
  O      255.867     -22.508      87.441
  O      255.306     -20.017      87.927
  O      253.477     -21.778      87.743
  H      253.241     -21.178      87.011
  H      257.760     -23.187      87.054
  H      257.506     -22.565      88.667
  H      257.624     -21.464      87.315

 6  7  8  9  10  11  12  13  14  15  16  26  30  31  32  33  35 0
 6-311+G(2d,p)
 ****
 37  38 0
 6-311+G(2d,p)
 ****
 1  2  3  4  5  17  18  19  20  21  22  23  24  25 0
 3-21G
 ****
 27  28  29  34  36  39  40  41  42  43  44  45  46 0
 3-21G
 ****


