%nproc=1
%NoSave
%Mem=1900MB
#P OB98/GEN NMR

erre ene a

0 1
  C      253.934      19.205    -340.176
  O      253.675      20.042    -339.047
  P      252.993      21.462    -339.356
  C      252.469      21.706    -336.827
  O      252.989      22.315    -337.998
  C      253.184      22.231    -335.580
  O      254.575      21.869    -335.552
  C      253.141      23.748    -335.453
  O      251.887      24.159    -334.946
  C      254.294      24.009    -334.492
  O      253.877      23.847    -333.121
  C      255.310      22.922    -334.877
  N      260.056      24.699    -334.941
  C      259.206      24.485    -333.873
  N      259.698      24.758    -332.646
  N      257.982      24.039    -333.999
  C      257.626      23.806    -335.282
  C      258.387      23.950    -336.417
  C      259.738      24.448    -336.266
  O      260.537      24.631    -337.176
  N      257.701      23.555    -337.538
  C      256.485      23.291    -337.089
  N      256.406      23.364    -335.721
  O      251.453      21.090    -339.584
  O      253.573      22.153    -340.544
  H      253.277      24.578    -332.882
  H      251.220      21.203    -340.526
  H      260.987      25.051    -334.786
  H      255.643      23.019    -337.707
  H      255.772      22.473    -333.989
  H      254.669      25.033    -334.578
  H      260.630      25.103    -332.476
  H      253.350      24.210    -336.426
  H      259.092      24.602    -331.850
  H      252.697      21.774    -334.708
  H      252.581      20.622    -336.888
  H      251.393      21.907    -336.774
  P      251.052      25.239    -335.790
  C      248.819      23.986    -335.368
  O      249.542      25.194    -335.266
  O      250.974      24.575    -337.246
  O      251.674      26.592    -335.850
  H      251.158      25.254    -337.924
  H      248.088      23.943    -334.560
  H      249.477      23.115    -335.297
  H      248.291      23.960    -336.325
  H      254.386      18.293    -339.847
  H      254.596      19.709    -340.849
  H      253.014      18.987    -340.677

 3  4  5  6  7  8  9  10  11  12  23  26  30  31 0
 6-311+G(2d,p)
 ****
 33  35  36  37  38 0
 6-311+G(2d,p)
 ****
 1  2  13  14  15  16  17  18  19  20  21  22  24  25 0
 3-21G
 ****
 27  28  29  32  34  39  40  41  42  43  44  45  46  47  48  49 0
 3-21G
 ****


