%nproc=1
%NoSave
%Mem=1900MB
#P OB98/GEN NMR

erre ene a

0 1
  C      -25.066     197.807    -568.450
  O      -26.169     198.693    -568.677
  P      -25.851     200.174    -569.197
  C      -26.691     199.797    -571.629
  O      -25.599     200.121    -570.780
  C      -26.652     200.653    -572.901
  O      -26.530     202.056    -572.596
  C      -25.479     200.334    -573.817
  O      -25.746     199.201    -574.633
  C      -25.420     201.593    -574.666
  O      -26.425     201.536    -575.699
  C      -25.766     202.686    -573.652
  N      -21.582     205.478    -574.617
  C      -22.528     204.961    -575.431
  N      -23.602     204.213    -575.101
  C      -23.658     204.025    -573.773
  C      -22.767     204.488    -572.821
  C      -21.683     205.250    -573.287
  N      -20.723     205.777    -572.454
  N      -23.147     204.085    -571.558
  C      -24.259     203.405    -571.746
  N      -24.603     203.332    -573.069
  O      -24.390     200.460    -568.604
  O      -26.835     201.200    -568.741
  H      -27.291     201.604    -575.255
  H      -24.307     201.404    -568.373
  H      -22.406     205.174    -576.490
  H      -24.844     202.948    -570.956
  H      -26.392     203.478    -574.083
  H      -24.456     201.715    -575.169
  H      -24.552     200.219    -573.245
  H      -27.594     200.496    -573.443
  H      -27.636     199.947    -571.105
  H      -19.990     206.335    -572.859
  H      -20.808     205.627    -571.459
  H      -26.643     198.731    -571.876
  P      -24.488     198.424    -575.247
  C      -24.916     196.595    -573.452
  O      -23.980     197.436    -574.096
  O      -23.362     199.561    -575.314
  O      -24.736     197.801    -576.583
  H      -22.753     199.385    -576.057
  H      -24.377     195.801    -572.935
  H      -25.601     196.143    -574.178
  H      -25.489     197.173    -572.719
  H      -25.432     196.862    -568.108
  H      -24.417     198.227    -567.710
  H      -24.525     197.670    -569.363

 3  4  5  6  7  8  9  10  11  12  22  25  29  30  31  32 0
 6-311+G(2d,p)
 ****
 33  36  37 0
 6-311+G(2d,p)
 ****
 1  2  13  14  15  16  17  18  19  20  21  23  24  26 0
 3-21G
 ****
 27  28  34  35  38  39  40  41  42  43  44  45  46  47  48 0
 3-21G
 ****


