%nproc=1
%NoSave
%Mem=1900MB
#P OB98/GEN NMR

erre ene a

0 1
  C      -68.763     -76.272     123.728
  O      -67.381     -76.389     124.100
  P      -66.922     -77.749     124.820
  C      -65.837     -76.390     126.782
  O      -65.674     -77.345     125.744
  C      -64.485     -76.074     127.420
  O      -63.600     -75.444     126.460
  C      -64.561     -75.107     128.596
  O      -65.078     -75.744     129.757
  C      -63.108     -74.666     128.702
  O      -62.333     -75.654     129.401
  C      -62.681     -74.620     127.214
  N      -62.615     -73.265     126.680
  C      -61.335     -72.755     126.471
  O      -60.309     -73.383     126.740
  N      -61.272     -71.484     125.965
  C      -62.340     -70.684     125.677
  O      -62.225     -69.557     125.209
  C      -63.664     -71.258     125.964
  C      -63.744     -72.499     126.447
  O      -66.274     -78.539     123.592
  O      -68.045     -78.450     125.509
  H      -65.819     -77.959     122.960
  H      -62.716     -75.721     130.298
  H      -60.356     -71.104     125.792
  H      -64.534     -70.640     125.773
  H      -64.711     -72.941     126.667
  H      -61.691     -75.080     127.093
  H      -62.995     -73.717     129.238
  H      -65.192     -74.248     128.332
  H      -64.028     -77.025     127.739
  H      -66.513     -76.782     127.547
  H      -66.300     -75.487     126.364
  P      -66.404     -75.103     130.406
  C      -65.333     -75.351     132.778
  O      -66.437     -75.582     131.935
  O      -67.547     -75.972     129.694
  O      -66.526     -73.629     130.187
  H      -67.344     -76.921     129.671
  H      -65.665     -75.418     133.820
  H      -64.904     -74.360     132.614
  H      -64.571     -76.114     132.602
  H      -68.928     -75.323     123.262
  H      -69.375     -76.351     124.602
  H      -69.016     -77.055     123.043

 3  4  5  6  7  8  9  10  11  12  13  24  28  29  30  31  32 0
 6-311+G(2d,p)
 ****
 33  34 0
 6-311+G(2d,p)
 ****
 1  2  14  15  16  17  18  19  20  21  22  23  25  26  27 0
 3-21G
 ****
 35  36  37  38  39  40  41  42  43  44  45 0
 3-21G
 ****


