%nproc=1
%NoSave
%Mem=1900MB
#P OB98/GEN NMR

erre ene a

0 1
  C      198.896     471.487     536.971
  O      200.272     471.806     537.045
  H      198.796     470.440     536.678
  H      198.409     472.113     536.219
  H      198.418     471.631     537.945
  P      200.646     473.251     537.641
  C      202.493     472.392     539.295
  O      201.214     472.972     539.114
  C      203.072     472.785     540.655
  O      203.524     474.161     540.586
  C      202.075     472.678     541.807
  O      202.770     472.222     542.970
  C      201.609     474.109     542.009
  O      201.113     474.327     543.330
  C      202.872     474.899     541.639
  N      202.568     476.268     541.221
  C      202.241     477.176     542.234
  O      202.196     476.804     543.407
  N      201.929     478.466     541.892
  C      201.877     478.806     540.640
  N      201.541     480.095     540.365
  C      202.164     477.868     539.537
  C      202.508     476.633     539.897
  O      199.197     473.879     537.901
  O      201.527     474.069     536.757
  H      200.958     475.291     543.439
  H      198.561     473.248     538.276
  H      202.093     478.193     538.510
  H      202.742     475.880     539.150
  H      203.562     474.944     542.491
  H      200.799     474.341     541.306
  H      201.238     472.011     541.597
  H      203.961     472.174     540.841
  H      201.333     480.700     541.148
  H      203.172     472.714     538.502
  H      201.421     480.453     539.430
  H      202.382     471.304     539.232
  P      201.996     471.311     544.037
  C      203.921     469.597     544.123
  O      202.534     469.803     543.917
  O      200.514     471.454     544.059
  O      202.630     471.787     545.434
  H      201.913     471.803     546.098
  H      204.147     468.557     544.016
  H      204.187     469.920     545.108
  H      204.476     470.159     543.401

 6  7  8  9  10  11  12  13  14  15  16  26  30  31  32  33  35 0
 6-311+G(2d,p)
 ****
 37  38 0
 6-311+G(2d,p)
 ****
 1  2  3  4  5  17  18  19  20  21  22  23  24  25 0
 3-21G
 ****
 27  28  29  34  36  39  40  41  42  43  44  45  46 0
 3-21G
 ****


