%nproc=1
%NoSave
%Mem=1900MB
#P OB98/GEN NMR

erre ene a

0 1
  C     -580.364    1075.204    -695.191
  O     -579.291    1075.720    -695.962
  P     -577.802    1075.267    -695.561
  C     -576.893    1075.102    -697.992
  O     -576.859    1075.781    -696.746
  C     -576.521    1076.054    -699.138
  O     -577.665    1076.839    -699.527
  C     -575.428    1077.045    -698.819
  O     -574.138    1076.491    -698.931
  C     -575.643    1078.091    -699.895
  O     -575.083    1077.636    -701.140
  C     -577.195    1078.126    -700.006
  N     -581.352    1081.032    -699.420
  C     -581.032    1080.124    -700.332
  N     -579.890    1079.403    -700.431
  C     -579.035    1079.738    -699.465
  C     -579.208    1080.664    -698.458
  C     -580.430    1081.333    -698.433
  N     -580.792    1082.260    -697.471
  N     -578.106    1080.737    -697.642
  C     -577.274    1079.830    -698.131
  N     -577.785    1079.189    -699.217
  O     -577.847    1073.680    -695.796
  O     -577.387    1075.604    -694.191
  H     -575.485    1076.778    -701.334
  H     -577.150    1073.241    -695.270
  H     -581.767    1079.939    -701.103
  H     -576.297    1079.597    -697.722
  H     -577.542    1078.248    -701.037
  H     -575.196    1079.063    -699.672
  H     -575.583    1077.495    -697.816
  H     -576.237    1075.436    -700.012
  H     -577.903    1074.707    -698.174
  H     -581.744    1082.553    -697.420
  H     -580.194    1082.312    -696.634
  H     -576.182    1074.266    -697.955
  P     -572.962    1077.188    -698.098
  C     -571.872    1074.866    -697.670
  O     -571.709    1076.154    -698.164
  O     -573.458    1077.068    -696.593
  O     -572.699    1078.590    -698.503
  H     -573.062    1077.784    -696.038
  H     -571.070    1074.220    -698.077
  H     -572.825    1074.424    -697.997
  H     -571.821    1074.838    -696.570
  H     -581.290    1075.587    -695.567
  H     -580.244    1075.500    -694.170
  H     -580.367    1074.136    -695.254

 3  4  5  6  7  8  9  10  11  12  22  25  29  30  31  32 0
 6-311+G(2d,p)
 ****
 33  36  37 0
 6-311+G(2d,p)
 ****
 1  2  13  14  15  16  17  18  19  20  21  23  24  26 0
 3-21G
 ****
 27  28  34  35  38  39  40  41  42  43  44  45  46  47  48 0
 3-21G
 ****


