%nproc=1
%NoSave
%Mem=1900MB
#P OB98/GEN NMR

erre ene a

0 1
  C     -401.898     416.684     170.071
  O     -402.570     416.036     171.139
  P     -401.775     414.887     171.939
  C     -403.499     413.051     171.170
  O     -402.155     413.510     171.208
  C     -403.565     411.680     170.488
  O     -403.174     411.802     169.106
  C     -402.633     410.631     171.081
  O     -403.139     410.103     172.301
  C     -402.553     409.629     169.935
  O     -403.713     408.777     169.930
  C     -402.568     410.554     168.703
  N     -401.239     410.773     168.129
  C     -400.890     409.963     167.054
  O     -401.641     409.102     166.590
  N     -399.637     410.160     166.537
  C     -398.700     411.024     167.021
  O     -397.571     411.134     166.548
  C     -399.106     411.832     168.179
  C     -400.343     411.673     168.673
  O     -402.596     414.864     173.309
  O     -400.318     415.170     172.070
  H     -403.516     415.156     173.185
  H     -403.714     408.318     169.068
  H     -399.371     409.600     165.742
  H     -398.387     412.521     168.598
  H     -400.657     412.254     169.530
  H     -403.210     410.136     167.918
  H     -401.671     408.980     170.004
  H     -401.643     411.068     171.257
  H     -404.607     411.334     170.519
  H     -404.104     413.768     170.609
  H     -403.879     412.988     172.192
  P     -402.188     409.068     173.083
  C     -403.836     407.059     172.770
  O     -402.562     407.610     172.527
  O     -402.832     409.110     174.548
  O     -400.741     409.429     173.030
  H     -403.807     409.106     174.534
  H     -404.019     406.265     172.044
  H     -404.620     407.814     172.682
  H     -403.859     406.629     173.780
  H     -402.544     417.418     169.636
  H     -401.628     415.962     169.329
  H     -401.015     417.161     170.442

 3  4  5  6  7  8  9  10  11  12  13  24  28  29  30  31  32 0
 6-311+G(2d,p)
 ****
 33  34 0
 6-311+G(2d,p)
 ****
 1  2  14  15  16  17  18  19  20  21  22  23  25  26  27 0
 3-21G
 ****
 35  36  37  38  39  40  41  42  43  44  45 0
 3-21G
 ****


