%nproc=1
%NoSave
%Mem=1900MB
#P OB98/GEN NMR

erre ene a

0 1
  C      121.621    -188.359      17.066
  O      120.387    -189.073      17.215
  P      120.285    -190.668      17.098
  C      118.000    -190.926      15.921
  O      118.742    -191.103      17.124
  C      116.527    -191.294      16.108
  O      116.395    -192.580      16.753
  C      115.731    -190.322      16.973
  O      115.420    -189.136      16.258
  C      114.520    -191.182      17.340
  O      113.538    -191.173      16.292
  C      115.154    -192.579      17.489
  N      115.359    -192.954      18.884
  C      114.212    -193.188      19.640
  O      113.092    -193.017      19.148
  N      114.354    -193.585      20.953
  C      115.537    -193.667      21.473
  N      115.620    -194.068      22.769
  C      116.774    -193.342      20.732
  C      116.611    -192.999      19.457
  O      121.144    -191.407      18.071
  O      120.734    -191.004      15.593
  H      114.027    -191.256      15.452
  H      121.161    -191.881      15.578
  H      117.741    -193.395      21.216
  H      117.464    -192.752      18.837
  H      114.522    -193.338      17.013
  H      114.020    -190.831      18.250
  H      116.297    -190.088      17.883
  H      116.069    -191.374      15.108
  H      114.757    -194.290      23.247
  H      118.437    -191.579      15.150
  H      116.493    -194.168      23.270
  H      118.095    -189.885      15.597
  P      115.161    -187.775      17.061
  C      113.238    -187.024      15.537
  O      114.532    -186.721      16.030
  O      116.316    -187.265      17.857
  O      113.921    -188.123      18.016
  H      113.997    -187.603      18.837
  H      112.767    -186.094      15.199
  H      112.616    -187.476      16.312
  H      113.324    -187.709      14.686
  H      121.443    -187.311      17.184
  H      122.025    -188.544      16.093
  H      122.316    -188.689      17.810

 3  4  5  6  7  8  9  10  11  12  13  23  27  28  29  30  32 0
 6-311+G(2d,p)
 ****
 34  35 0
 6-311+G(2d,p)
 ****
 1  2  14  15  16  17  18  19  20  21  22  24  25  26 0
 3-21G
 ****
 31  33  36  37  38  39  40  41  42  43  44  45  46 0
 3-21G
 ****


