%nproc=1
%NoSave
%Mem=1900MB
#P OB98/GEN NMR

erre ene a

0 1
  C      986.456    -488.684     -65.228
  O      986.467    -487.802     -66.366
  P      987.736    -487.694     -67.344
  C      988.821    -485.385     -66.952
  O      987.939    -486.159     -67.766
  C      988.810    -483.908     -67.346
  O      987.516    -483.313     -67.071
  C      989.835    -483.048     -66.618
  O      991.126    -483.221     -67.188
  C      989.233    -481.654     -66.789
  O      989.549    -481.131     -68.088
  C      987.736    -481.939     -66.676
  N      984.830    -478.809     -63.848
  C      985.135    -478.810     -65.169
  N      985.926    -479.685     -65.840
  C      986.391    -480.641     -65.014
  C      986.166    -480.771     -63.658
  C      985.341    -479.794     -63.054
  N      985.030    -479.789     -61.717
  N      986.837    -481.860     -63.144
  C      987.450    -482.397     -64.192
  N      987.198    -481.700     -65.352
  O      987.710    -488.653     -68.492
  O      989.001    -487.988     -66.402
  H      990.521    -481.196     -68.212
  H      989.728    -488.380     -66.931
  H      984.699    -478.013     -65.746
  H      988.053    -483.283     -64.166
  H      987.157    -481.319     -67.375
  H      989.618    -480.936     -66.048
  H      989.860    -483.300     -65.558
  H      988.952    -483.840     -68.430
  H      989.834    -485.784     -67.050
  H      984.471    -479.044     -61.360
  H      985.451    -480.485     -61.119
  H      988.497    -485.500     -65.901
  P      992.315    -483.851     -66.323
  C      994.038    -482.549     -67.723
  O      993.631    -483.818     -67.236
  O      992.029    -485.148     -65.671
  O      992.623    -482.712     -65.226
  H      992.962    -483.121     -64.416
  H      993.422    -482.278     -68.606
  H      995.089    -482.593     -68.031
  H      993.920    -481.787     -66.960
  H      985.519    -488.598     -64.719
  H      987.250    -488.417     -64.562
  H      986.591    -489.693     -65.557

 3  4  5  6  7  8  9  10  11  12  22  25  29  30  31  32 0
 6-311+G(2d,p)
 ****
 33  36  37 0
 6-311+G(2d,p)
 ****
 1  2  13  14  15  16  17  18  19  20  21  23  24  26 0
 3-21G
 ****
 27  28  34  35  38  39  40  41  42  43  44  45  46  47  48 0
 3-21G
 ****


