%nproc=1
%NoSave
%Mem=1900MB
#P OB98/GEN NMR

erre ene a

0 1
  C      144.592     270.861     279.094
  O      145.459     269.993     279.798
  H      144.087     271.510     279.815
  H      143.836     270.285     278.557
  H      145.153     271.487     278.392
  P      146.400     268.999     278.962
  C      144.625     267.216     279.492
  O      146.011     267.506     279.422
  C      144.387     265.904     280.237
  O      145.100     264.840     279.556
  C      144.866     265.931     281.695
  O      143.941     265.187     282.491
  C      146.194     265.202     281.643
  O      146.533     264.595     282.891
  C      145.960     264.199     280.519
  N      150.262     261.651     281.272
  C      149.160     261.805     282.094
  N      149.220     261.221     283.306
  N      148.095     262.483     281.754
  C      148.162     263.007     280.506
  C      149.193     262.923     279.599
  C      150.375     262.183     279.991
  O      151.380     262.021     279.308
  N      148.895     263.608     278.445
  C      147.689     264.107     278.659
  N      147.207     263.777     279.899
  O      147.863     269.301     279.020
  O      145.833     269.085     277.471
  H      146.327     265.250     283.592
  H      146.388     269.673     276.924
  H      151.058     261.127     281.586
  H      147.133     264.714     277.959
  H      145.461     263.283     280.877
  H      146.995     265.907     281.378
  H      150.003     260.672     283.630
  H      144.966     266.947     282.093
  H      148.419     261.301     283.921
  H      143.320     265.656     280.182
  H      144.235     267.131     278.470
  H      144.104     268.037     279.999
  P      142.686     265.953     283.135
  C      143.564     265.624     285.538
  O      142.485     265.408     284.634
  O      141.450     265.987     282.298
  O      143.262     267.433     283.375
  H      142.525     268.070     283.305
  H      143.313     265.220     286.496
  H      143.747     266.674     285.631
  H      144.443     265.140     285.166

 6  7  8  9  10  11  12  13  14  15  26  29  33  34 0
 6-311+G(2d,p)
 ****
 36  38  39  40  41 0
 6-311+G(2d,p)
 ****
 1  2  3  4  5  16  17  18  19  20  21  22  23  24  25 0
 3-21G
 ****
 27  28  30  31  32  35  37  42  43  44  45  46  47 0
 3-21G
 ****
 48  49 0
 3-21G
 ****


