%nproc=1
%NoSave
%Mem=1900MB
#P OB98/GEN NMR

erre ene a

0 1
  C     -197.621     295.921    -103.502
  O     -198.125     297.057    -102.818
  P     -197.739     298.536    -103.296
  C     -195.818     298.215    -101.609
  O     -196.747     299.129    -102.174
  C     -194.949     298.909    -100.556
  O     -194.084     299.862    -101.223
  C     -195.753     299.666     -99.510
  O     -195.092     299.556     -98.247
  C     -195.681     301.114     -99.964
  O     -195.848     302.018     -98.852
  C     -194.304     301.158    -100.630
  N     -192.983     305.987    -101.758
  C     -192.904     305.282    -100.611
  N     -193.296     304.014    -100.375
  C     -193.770     303.443    -101.503
  C     -193.901     304.038    -102.748
  C     -193.487     305.378    -102.859
  N     -193.553     306.094    -104.033
  N     -194.453     303.150    -103.659
  C     -194.623     302.040    -102.975
  N     -194.214     302.161    -101.668
  O     -198.890     299.417    -103.633
  O     -196.769     298.315    -104.552
  H     -195.562     302.906     -99.153
  H     -196.937     298.988    -105.235
  H     -192.476     305.810     -99.763
  H     -195.044     301.127    -103.369
  H     -193.504     301.337     -99.902
  H     -196.483     301.317    -100.679
  H     -196.786     299.313     -99.422
  H     -194.307     298.151    -100.087
  H     -195.179     297.828    -102.410
  H     -193.119     307.004    -104.049
  H     -193.760     305.587    -104.889
  H     -196.362     297.370    -101.168
  P     -196.044     299.259     -96.982
  C     -195.408     301.560     -95.919
  O     -195.429     300.157     -95.791
  O     -196.194     297.796     -96.717
  O     -197.389     300.010     -97.416
  H     -197.211     300.726     -98.057
  H     -194.925     301.985     -95.036
  H     -196.433     301.947     -95.972
  H     -194.854     301.860     -96.813
  H     -197.989     295.031    -103.036
  H     -196.552     295.927    -103.464
  H     -197.942     295.948    -104.522

 3  4  5  6  7  8  9  10  11  12  22  25  29  30  31  32 0
 6-311+G(2d,p)
 ****
 33  36  37 0
 6-311+G(2d,p)
 ****
 1  2  13  14  15  16  17  18  19  20  21  23  24  26 0
 3-21G
 ****
 27  28  34  35  38  39  40  41  42  43  44  45  46  47  48 0
 3-21G
 ****


