%nproc=1
%NoSave
%Mem=1900MB
#P OB98/GEN NMR

erre ene a

0 1
  C     -342.705     -52.360    -411.359
  O     -343.254     -51.129    -411.793
  P     -343.972     -50.202    -410.699
  C     -346.404     -51.035    -411.141
  O     -345.303     -50.990    -410.239
  C     -347.584     -51.759    -410.499
  O     -347.254     -53.145    -410.251
  C     -347.993     -51.197    -409.141
  O     -348.814     -50.045    -409.269
  C     -348.789     -52.360    -408.572
  O     -350.123     -52.363    -409.127
  C     -347.998     -53.574    -409.077
  N     -347.643     -56.068    -404.684
  C     -348.734     -55.880    -405.511
  N     -349.912     -56.386    -405.077
  N     -348.677     -55.265    -406.663
  C     -347.439     -54.812    -406.964
  C     -346.278     -54.935    -406.228
  C     -346.355     -55.605    -404.951
  O     -345.433     -55.758    -404.154
  N     -345.214     -54.353    -406.872
  C     -345.726     -53.871    -407.992
  N     -347.073     -54.087    -408.077
  O     -344.551     -48.984    -411.561
  O     -343.084     -49.741    -409.583
  H     -350.020     -52.402    -410.100
  H     -344.767     -48.234    -410.975
  H     -347.737     -56.546    -403.807
  H     -345.163     -53.356    -408.758
  H     -348.655     -54.390    -409.391
  H     -348.901     -52.310    -407.487
  H     -350.029     -56.819    -404.164
  H     -347.120     -51.008    -408.510
  H     -350.742     -56.211    -405.627
  H     -348.423     -51.734    -411.203
  H     -346.105     -51.569    -412.055
  H     -346.687     -50.017    -411.423
  P     -348.417     -48.774    -408.363
  C     -349.998     -49.370    -406.392
  O     -348.672     -49.238    -406.853
  O     -349.606     -47.744    -408.656
  O     -347.075     -48.196    -408.671
  H     -349.297     -46.824    -408.523
  H     -349.985     -49.932    -405.450
  H     -350.618     -49.906    -407.120
  H     -350.421     -48.378    -406.197
  H     -342.262     -52.866    -412.191
  H     -343.480     -52.969    -410.942
  H     -341.958     -52.175    -410.616

 3  4  5  6  7  8  9  10  11  12  23  26  30  31 0
 6-311+G(2d,p)
 ****
 33  35  36  37  38 0
 6-311+G(2d,p)
 ****
 1  2  13  14  15  16  17  18  19  20  21  22  24  25 0
 3-21G
 ****
 27  28  29  32  34  39  40  41  42  43  44  45  46  47  48  49 0
 3-21G
 ****


