%nproc=1
%NoSave
%Mem=1900MB
#P OB98/GEN NMR

erre ene a

0 1
  C     -331.191     492.162     801.418
  O     -330.468     492.503     802.581
  P     -330.245     491.429     803.750
  C     -328.519     491.101     805.634
  O     -328.820     491.759     804.403
  C     -327.045     491.294     805.988
  O     -326.190     490.545     805.075
  C     -326.555     492.730     805.871
  O     -327.092     493.674     806.773
  C     -325.051     492.532     805.888
  O     -324.560     492.370     807.223
  C     -324.900     491.212     805.089
  N     -324.397     491.445     803.732
  C     -323.037     491.217     803.546
  O     -322.277     490.830     804.437
  N     -322.563     491.465     802.284
  C     -323.285     491.957     801.232
  O     -322.786     492.200     800.145
  C     -324.709     492.201     801.503
  C     -325.195     491.938     802.719
  O     -330.430     490.003     803.343
  O     -331.261     491.912     804.890
  H     -324.957     493.082     807.766
  H     -331.094     492.815     805.222
  H     -321.570     491.315     802.129
  H     -325.312     492.581     800.686
  H     -326.244     492.109     802.941
  H     -324.202     490.539     805.600
  H     -324.518     493.388     805.453
  H     -326.816     493.097     804.872
  H     -326.881     490.889     806.990
  H     -328.722     490.026     805.518
  H     -329.168     491.490     806.425
  P     -327.145     495.247     806.480
  C     -328.473     497.298     807.348
  O     -328.255     495.905     807.431
  O     -327.130     495.660     805.038
  O     -325.785     495.744     807.182
  H     -325.447     496.514     806.683
  H     -329.236     497.572     808.088
  H     -328.852     497.572     806.349
  H     -327.548     497.845     807.567
  H     -331.230     493.006     800.762
  H     -332.185     491.874     801.688
  H     -330.706     491.347     800.922

 3  4  5  6  7  8  9  10  11  12  13  23  28  29  30  31  32 0
 6-311+G(2d,p)
 ****
 33  34 0
 6-311+G(2d,p)
 ****
 1  2  14  15  16  17  18  19  20  21  22  24  25  26  27 0
 3-21G
 ****
 35  36  37  38  39  40  41  42  43  44  45 0
 3-21G
 ****


