%nproc=1
%NoSave
%Mem=1900MB
#P OB98/GEN NMR

erre ene a

0 1
  C      252.570     -18.897      60.683
  O      251.556     -17.940      60.451
  H      252.740     -18.973      61.760
  H      253.498     -18.584      60.198
  H      252.262     -19.874      60.303
  P      251.146     -17.692      58.920
  C      249.786     -19.916      58.941
  O      249.793     -18.520      58.685
  C      248.672     -20.601      58.140
  O      248.955     -22.031      58.076
  C      247.275     -20.452      58.763
  O      246.311     -20.497      57.699
  C      247.173     -21.718      59.596
  O      245.844     -21.951      60.002
  C      247.804     -22.711      58.625
  N      246.202     -27.269      60.294
  C      245.559     -26.270      59.656
  N      246.055     -25.090      59.232
  C      247.367     -24.999      59.508
  C      248.159     -25.939      60.142
  C      247.524     -27.124      60.552
  N      248.175     -28.141      61.209
  N      249.463     -25.486      60.251
  C      249.453     -24.295      59.687
  N      248.209     -23.957      59.232
  O      252.247     -18.519      58.107
  O      251.091     -16.263      58.494
  H      245.808     -22.640      60.699
  H      252.974     -17.928      57.837
  H      244.502     -26.438      59.463
  H      250.308     -23.637      59.592
  H      247.133     -22.950      57.792
  H      247.770     -21.633      60.510
  H      247.150     -19.527      59.331
  H      248.694     -20.229      57.109
  H      249.621     -20.071      60.013
  H      250.753     -20.344      58.660
  H      247.643     -28.952      61.482
  H      249.156     -28.039      61.423
  P      245.939     -19.138      56.922
  C      247.339     -19.774      54.805
  O      246.082     -19.393      55.345
  O      247.220     -18.220      57.226
  O      244.686     -18.460      57.365
  H      246.959     -17.281      57.209
  H      247.249     -19.900      53.746
  H      247.653     -20.696      55.248
  H      248.062     -19.013      55.013

 6  7  8  9  10  11  12  13  14  15  25  28  32  33  34  35 0
 6-311+G(2d,p)
 ****
 36  37  40 0
 6-311+G(2d,p)
 ****
 1  2  3  4  5  16  17  18  19  20  21  22  23  24 0
 3-21G
 ****
 26  27  29  30  31  38  39 41  42  43  44  45  46  47  48 0
 3-21G
 ****


