%nproc=1
%NoSave
%Mem=1900MB
#P OB98/GEN NMR

erre ene a

0 1
  C       24.239     -32.257      30.002
  O       24.698     -31.090      30.659
  P       23.945     -29.711      30.342
  C       26.292     -28.665      29.903
  O       24.946     -28.812      29.473
  C       27.227     -28.704      28.693
  O       27.252     -30.029      28.118
  C       26.800     -27.776      27.563
  O       27.162     -26.432      27.832
  C       27.538     -28.377      26.376
  O       28.895     -27.910      26.322
  C       27.492     -29.884      26.702
  N       26.501     -30.600      25.907
  C       26.977     -31.676      25.165
  O       28.164     -32.004      25.149
  N       26.051     -32.339      24.408
  C       24.734     -32.006      24.279
  O       23.964     -32.606      23.540
  C       24.293     -30.841      25.064
  C       25.182     -30.199      25.824
  O       23.895     -28.967      31.758
  O       22.585     -29.869      29.750
  H       28.852     -26.934      26.293
  H       23.062     -28.463      31.839
  H       26.371     -33.137      23.883
  H       23.254     -30.548      24.985
  H       24.880     -29.331      26.398
  H       28.473     -30.339      26.517
  H       27.071     -28.113      25.423
  H       25.720     -27.864      27.395
  H       28.241     -28.459      29.030
  H       26.543     -29.478      30.589
  H       26.395     -27.716      30.438
  P       25.993     -25.334      27.747
  C       27.200     -24.015      25.842
  O       26.073     -24.756      26.255
  O       26.601     -24.180      28.676
  O       24.668     -25.857      28.187
  H       27.571     -24.143      28.628
  H       28.118     -24.394      26.299
  H       27.064     -22.967      26.115
  H       27.291     -24.089      24.755
  H       24.831     -33.095      30.308
  H       24.325     -32.127      28.943
  H       23.215     -32.431      30.258

 3  4  5  6  7  8  9  10  11  12  13  23  28  29  30  31  32 0
 6-311+G(2d,p)
 ****
 33  34 0
 6-311+G(2d,p)
 ****
 1  2  14  15  16  17  18  19  20  21  22  24  25  26 0
 3-21G
 ****
 27  35  36  37  38  39  40  41  42  43  44  45 0
 3-21G
 ****


