%nproc=1
%NoSave
%Mem=1900MB
#P OB98/GEN NMR

erre ene a

0 1
  C      220.970    -388.976    -854.648
  O      220.247    -387.756    -854.804
  P      219.682    -387.352    -856.249
  C      217.369    -386.618    -855.348
  O      218.084    -387.465    -856.245
  C      215.886    -386.581    -855.738
  O      215.657    -385.745    -856.892
  C      215.339    -387.943    -856.138
  O      215.214    -388.907    -855.097
  C      214.085    -387.581    -856.901
  O      212.985    -387.341    -856.030
  C      214.522    -386.268    -857.601
  N      214.824    -386.460    -859.024
  C      213.802    -386.136    -859.913
  O      212.695    -385.749    -859.562
  N      214.101    -386.309    -861.239
  C      215.277    -386.801    -861.749
  O      215.474    -386.954    -862.949
  C      216.301    -387.156    -860.760
  C      216.038    -386.971    -859.461
  O      220.365    -387.996    -857.407
  O      219.911    -385.765    -856.281
  H      212.822    -388.158    -855.524
  H      220.229    -385.527    -857.177
  H      213.377    -386.070    -861.905
  H      217.238    -387.540    -861.126
  H      216.778    -387.220    -858.721
  H      213.722    -385.517    -857.528
  H      213.782    -388.384    -857.586
  H      216.042    -388.384    -856.859
  H      215.322    -386.147    -854.902
  H      217.792    -385.607    -855.375
  H      217.507    -386.988    -854.324
  P      216.479    -389.571    -854.358
  C      215.529    -388.877    -852.048
  O      216.634    -388.889    -852.922
  O      217.717    -389.774    -855.164
  O      215.882    -391.024    -853.973
  H      216.617    -391.662    -854.008
  H      215.804    -388.354    -851.122
  H      215.221    -389.889    -851.800
  H      214.694    -388.331    -852.511
  H      221.270    -389.085    -853.627
  H      221.837    -388.959    -855.275
  H      220.345    -389.799    -854.926

 3  4  5  6  7  8  9  10  11  12  13  23  28  29  30  31  32 0
 6-311+G(2d,p)
 ****
 33  34 0
 6-311+G(2d,p)
 ****
 1  2  14  15  16  17  18  19  20  21  22  24  25  26  27 0
 3-21G
 ****
 35  36  37  38  39  40  41  42  43  44  45 0
 3-21G
 ****


