%nproc=1
%NoSave
%Mem=1900MB
#P OB98/GEN NMR

erre ene a

0 1
  C      -93.144    -230.736    -260.112
  O      -92.078    -231.534    -260.618
  P      -91.192    -230.919    -261.807
  C      -92.104    -232.669    -263.493
  O      -91.967    -231.293    -263.165
  C      -93.478    -232.940    -264.106
  O      -94.501    -232.248    -263.361
  C      -93.632    -232.471    -265.547
  O      -93.093    -233.398    -266.475
  C      -95.144    -232.411    -265.674
  O      -95.667    -233.736    -265.882
  C      -95.562    -231.891    -264.288
  N      -99.010    -228.181    -263.595
  C      -99.130    -229.522    -263.638
  N      -98.166    -230.448    -263.838
  C      -96.972    -229.856    -264.048
  C      -96.710    -228.493    -264.070
  C      -97.789    -227.632    -263.817
  N      -97.660    -226.258    -263.744
  N      -95.373    -228.266    -264.314
  C      -94.840    -229.465    -264.426
  N      -95.767    -230.457    -264.265
  O      -89.908    -231.878    -261.836
  O      -90.817    -229.485    -261.638
  H      -96.641    -233.675    -265.809
  H      -89.151    -231.415    -262.245
  H     -100.131    -229.912    -263.482
  H      -93.789    -229.660    -264.623
  H      -96.480    -232.367    -263.927
  H      -95.478    -231.794    -266.515
  H      -93.213    -231.462    -265.683
  H      -93.677    -234.018    -264.032
  H      -91.998    -233.271    -262.584
  H      -98.433    -225.728    -263.382
  H      -96.720    -225.873    -263.717
  H      -91.308    -232.950    -264.198
  P      -91.818    -232.913    -267.329
  C      -93.693    -232.134    -268.959
  O      -92.410    -231.887    -268.413
  O      -91.443    -234.206    -268.188
  O      -90.679    -232.418    -266.504
  H      -90.496    -234.193    -268.426
  H      -94.060    -231.210    -269.419
  H      -94.401    -232.439    -268.181
  H      -93.629    -232.908    -269.727
  H      -93.646    -231.266    -259.329
  H      -93.836    -230.524    -260.900
  H      -92.751    -229.819    -259.726

 3  4  5  6  7  8  9  10  11  12  22  25  29  30  31  32 0
 6-311+G(2d,p)
 ****
 33  36  37 0
 6-311+G(2d,p)
 ****
 1  2  13  14  15  16  17  18  19  20  21  23  24  26 0
 3-21G
 ****
 27  28  34  35  38  39  40  41  42  43  44  45  46  47  48 0
 3-21G
 ****


