%nproc=1
%NoSave
%Mem=1900MB
#P OB98/GEN NMR

erre ene a

0 1
  C      129.732      98.951     270.736
  O      129.384     100.306     270.511
  P      127.871     100.806     270.705
  C      125.838     100.495     269.156
  O      126.956      99.868     269.777
  C      125.220      99.579     268.103
  O      124.964      98.285     268.697
  C      123.897     100.096     267.546
  O      123.815      99.759     266.157
  C      122.839      99.305     268.292
  O      121.623      99.207     267.531
  C      123.568      97.976     268.528
  N      122.292      93.430     270.556
  C      122.769      93.768     269.339
  N      123.062      94.998     268.857
  C      122.866      95.930     269.805
  C      122.386      95.740     271.093
  C      122.089      94.414     271.462
  N      121.611      94.073     272.712
  N      122.288      96.943     271.763
  C      122.722      97.839     270.905
  N      123.092      97.277     269.710
  O      127.657     102.267     270.508
  O      127.482     100.341     272.184
  H      121.793      98.582     266.794
  H      126.927     101.018     272.620
  H      122.937      92.937     268.653
  H      122.775      98.904     271.088
  H      123.469      97.304     267.663
  H      122.604      99.806     269.239
  H      123.775     101.175     267.677
  H      125.950      99.430     267.294
  H      126.186     101.415     268.676
  H      121.543      93.089     272.925
  H      121.627      94.777     273.436
  H      125.097     100.759     269.921
  P      123.170     100.882     265.198
  C      120.779     101.910     265.053
  O      121.614     100.901     265.581
  O      123.520     100.663     263.763
  O      123.778     102.225     265.838
  H      124.011     102.096     266.782
  H      119.770     101.778     265.456
  H      120.728     101.827     263.962
  H      121.148     102.900     265.334
  H      130.778      98.817     270.556
  H      129.173      98.324     270.073
  H      129.508      98.689     271.749

 3  4  5  6  7  8  9  10  11  12  22  25  29  30  31  32 0
 6-311+G(2d,p)
 ****
 33  36  37 0
 6-311+G(2d,p)
 ****
 1  2  13  14  15  16  17  18  19  20  21  23  24  26 0
 3-21G
 ****
 27  28  34  35  38  39  40  41  42  43  44  45  46  47  48 0
 3-21G
 ****


