%nproc=1
%NoSave
%Mem=1900MB
#P OB98/GEN NMR

erre ene a

0 1
  C      300.830    -358.441    -164.619
  O      300.329    -357.128    -164.850
  P      300.293    -356.102    -163.616
  C      297.732    -355.712    -163.509
  O      299.001    -355.167    -163.828
  C      296.625    -354.673    -163.688
  O      296.712    -353.699    -162.607
  C      296.686    -353.891    -165.004
  O      295.339    -353.594    -165.386
  C      297.386    -352.608    -164.608
  O      297.147    -351.549    -165.538
  C      296.797    -352.392    -163.216
  N      297.341    -347.640    -161.414
  C      296.385    -348.203    -162.181
  N      296.306    -349.476    -162.621
  C      297.365    -350.194    -162.186
  C      298.432    -349.744    -161.426
  C      298.397    -348.396    -161.029
  N      299.364    -347.818    -160.233
  N      299.332    -350.759    -161.201
  C      298.819    -351.810    -161.820
  N      297.620    -351.521    -162.409
  O      301.517    -355.126    -163.940
  O      300.427    -356.721    -162.268
  H      297.360    -351.875    -166.431
  H      302.232    -355.259    -163.284
  H      295.570    -347.547    -162.481
  H      299.275    -352.787    -161.869
  H      295.789    -351.968    -163.255
  H      298.470    -352.770    -164.568
  H      297.201    -354.423    -165.814
  H      295.654    -355.178    -163.587
  H      297.738    -356.037    -162.463
  H      299.196    -346.892    -159.878
  H      300.047    -348.418    -159.787
  H      297.534    -356.582    -164.143
  P      294.881    -354.037    -166.861
  C      295.051    -351.623    -167.787
  O      294.227    -352.753    -167.547
  O      293.630    -355.002    -166.583
  O      295.949    -354.733    -167.643
  H      293.544    -355.646    -167.305
  H      294.715    -351.127    -168.701
  H      296.105    -351.898    -167.901
  H      294.954    -350.926    -166.950
  H      300.791    -359.003    -165.529
  H      300.232    -358.925    -163.875
  H      301.843    -358.382    -164.280

 3  4  5  6  7  8  9  10  11  12  22  25  29  30  31  32 0
 6-311+G(2d,p)
 ****
 33  36  37 0
 6-311+G(2d,p)
 ****
 1  2  13  14  15  16  17  18  19  20  21  23  24  26 0
 3-21G
 ****
 27  28  34  35  38  39  40  41  42  43  44  45  46  47  48 0
 3-21G
 ****


