%nproc=1
%NoSave
%Mem=1900MB
#P OB98/GEN NMR

erre ene a

0 1
  C      -70.280     377.370     269.426
  O      -68.883     377.187     269.170
  P      -68.157     378.318     268.282
  C      -68.315     376.730     266.216
  O      -68.544     378.043     266.753
  C      -68.897     376.617     264.813
  O      -68.210     377.477     263.875
  C      -68.798     375.212     264.205
  O      -69.803     374.333     264.697
  C      -68.992     375.509     262.737
  O      -70.402     375.613     262.435
  C      -68.318     376.888     262.581
  N      -65.622     377.065     258.277
  C      -66.991     377.223     258.473
  N      -67.729     377.456     257.375
  N      -67.563     377.127     259.637
  C      -66.689     376.890     260.645
  C      -65.325     376.732     260.583
  C      -64.697     376.821     259.281
  O      -63.500     376.662     259.042
  N      -64.783     376.532     261.823
  C      -65.795     376.579     262.638
  N      -66.992     376.806     261.975
  O      -66.617     377.894     268.356
  O      -68.387     379.710     268.770
  H      -70.757     374.700     262.434
  H      -66.047     378.687     268.236
  H      -65.222     377.159     257.344
  H      -65.747     376.486     263.717
  H      -68.926     377.563     261.952
  H      -68.600     374.724     262.069
  H      -67.346     377.636     256.449
  H      -67.776     374.795     264.360
  H      -68.732     377.619     257.503
  H      -69.948     376.907     264.842
  H      -68.776     375.977     266.873
  H      -67.237     376.523     266.229
  P      -69.445     373.438     265.983
  C      -69.034     371.433     264.344
  O      -68.522     372.241     265.405
  O      -70.832     372.723     266.291
  O      -68.916     374.188     267.137
  H      -70.884     372.488     267.257
  H      -69.526     372.029     263.595
  H      -69.716     370.674     264.780
  H      -68.184     370.903     263.899
  H      -70.643     376.558     270.021
  H      -70.812     377.397     268.498
  H      -70.429     378.291     269.950

 3  4  5  6  7  8  9  10  11  12  23  26  30  31  33  0
 6-311+G(2d,p)
 ****
 35  36  37  38 0
 6-311+G(2d,p)
 ****
 1  2  13  14  15  16  17  18  19  20  21  22  24  25  27  28  29 0
 3-21G
 ****
 32  34  39  40  41  42  43  44  45  46  47  48  49 0
 3-21G
 ****


