%nproc=1
%NoSave
%Mem=1900MB
#P OB98/GEN NMR

erre ene a

0 1
  C     -456.936     159.481    -626.331
  O     -457.882     159.838    -625.345
  H     -457.365     159.653    -627.317
  H     -456.693     158.416    -626.238
  H     -456.026     160.079    -626.229
  P     -457.349     160.040    -623.853
  C     -459.606     159.265    -622.805
  O     -458.646     160.317    -622.933
  C     -460.840     159.786    -622.070
  O     -460.457     160.199    -620.734
  C     -461.539     160.967    -622.748
  O     -462.953     160.836    -622.575
  C     -461.068     162.150    -621.920
  O     -461.956     163.265    -622.007
  C     -461.009     161.511    -620.530
  N     -460.966     165.883    -618.058
  C     -461.980     165.251    -618.749
  N     -463.152     165.919    -618.854
  N     -461.853     164.077    -619.303
  C     -460.633     163.520    -619.100
  C     -459.547     164.033    -618.430
  C     -459.691     165.346    -617.850
  O     -458.819     165.955    -617.232
  N     -458.473     163.173    -618.504
  C     -458.912     162.150    -619.243
  N     -460.208     162.307    -619.620
  O     -456.641     161.474    -623.927
  O     -456.422     158.987    -623.346
  H     -461.920     163.615    -622.921
  H     -455.681     161.363    -624.090
  H     -461.099     166.807    -617.670
  H     -458.313     161.292    -619.523
  H     -462.010     161.406    -620.075
  H     -460.077     162.467    -622.244
  H     -463.322     166.826    -618.443
  H     -461.291     161.082    -623.813
  H     -463.914     165.455    -619.340
  H     -461.554     158.945    -621.957
  H     -459.160     158.441    -622.242
  H     -459.870     158.901    -623.809
  P     -463.902     161.348    -623.778
  C     -465.738     161.917    -622.003
  O     -465.429     161.326    -623.257
  O     -463.844     160.121    -624.820
  O     -463.464     162.623    -624.406
  H     -463.891     160.467    -625.721
  H     -466.786     161.817    -621.810
  H     -465.477     162.954    -622.024
  H     -465.184     161.425    -621.231

 6  7  8  9  10  11  12  13  14  15  26  29  33  34 0
 6-311+G(2d,p)
 ****
 36  38  39  40  41 0
 6-311+G(2d,p)
 ****
 1  2  3  4  5  16  17  18  19  20  21  22  23  24  25 0
 3-21G
 ****
 27  28  30  31  32  35  37  42  43  44  45  46  47 0
 3-21G
 ****
 48  49 0
 3-21G
 ****


