%nproc=1
%NoSave
%Mem=1900MB
#P OB98/GEN NMR

erre ene a

0 1
  C       35.148     -21.042      64.444
  O       35.806     -21.800      65.439
  P       37.398     -21.949      65.449
  C       37.651     -24.318      64.503
  O       37.752     -23.498      65.660
  C       37.437     -25.784      64.876
  O       37.193     -26.556      63.671
  C       38.623     -26.423      65.612
  O       38.082     -27.304      66.603
  C       39.318     -27.212      64.519
  O       40.124     -28.261      65.037
  C       38.116     -27.663      63.683
  N       38.492     -28.056      62.334
  C       39.144     -29.282      62.192
  O       39.495     -29.916      63.188
  N       39.395     -29.746      60.925
  C       39.187     -28.970      59.906
  N       39.384     -29.493      58.666
  C       38.731     -27.572      60.043
  C       38.363     -27.198      61.266
  O       38.115     -21.019      66.370
  O       37.827     -21.687      63.927
  H       38.511     -20.990      63.904
  H       40.454     -28.805      64.291
  H       38.693     -26.925      59.180
  H       37.989     -26.201      61.465
  H       37.604     -28.505      64.167
  H       39.962     -26.544      63.935
  H       39.269     -25.686      66.097
  H       36.533     -25.850      65.493
  H       39.658     -30.466      58.610
  H       38.582     -24.226      63.939
  H       38.955     -29.090      57.834
  H       36.837     -23.960      63.863
  P       38.361     -26.974      68.150
  C       40.838     -27.741      68.067
  O       39.561     -27.912      68.645
  O       37.089     -27.656      68.858
  O       38.432     -25.529      68.521
  H       36.923     -27.209      69.708
  H       41.509     -28.503      68.472
  H       41.240     -26.755      68.318
  H       40.790     -27.856      66.982
  H       34.092     -21.068      64.616
  H       35.363     -21.455      63.481
  H       35.490     -20.029      64.483

 3  4  5  6  7  8  9  10  11  12  13  24  27  28  29  30  32 0
 6-311+G(2d,p)
 ****
 34  35 0
 6-311+G(2d,p)
 ****
 1  2  14  15  16  17  18  19  20  21  22  23  25  26 0
 3-21G
 ****
 31  33  36  37  38  39  40  41  42  43  44  45  46 0
 3-21G
 ****


