%nproc=1
%NoSave
%Mem=1900MB
#P OB98/GEN NMR

erre ene a

0 1
  C      -30.529    -222.598     131.018
  O      -29.894    -221.577     131.763
  H      -29.776    -223.108     130.410
  H      -31.284    -222.167     130.355
  H      -30.990    -223.325     131.691
  P      -30.832    -220.722     132.746
  C      -31.377    -219.258     130.681
  O      -30.944    -219.288     132.035
  C      -31.470    -217.818     130.183
  O      -31.856    -217.786     128.797
  C      -32.494    -216.963     130.918
  O      -31.969    -216.488     132.147
  C      -32.696    -215.836     129.917
  O      -31.611    -214.892     130.023
  C      -32.618    -216.570     128.564
  N      -36.812    -214.820     126.177
  C      -35.787    -214.178     126.780
  N      -34.730    -214.708     127.431
  C      -34.789    -216.048     127.426
  C      -35.772    -216.841     126.853
  C      -36.818    -216.173     126.194
  N      -37.856    -216.833     125.571
  N      -35.499    -218.178     127.052
  C      -34.346    -218.193     127.687
  N      -33.892    -216.928     127.970
  O      -30.435    -220.721     134.181
  O      -32.266    -221.368     132.437
  H      -31.697    -214.443     130.886
  H      -32.353    -221.569     131.489
  H      -35.819    -213.092     126.731
  H      -33.791    -219.086     127.951
  H      -32.078    -215.983     127.815
  H      -33.618    -215.281     130.094
  H      -33.442    -217.497     131.049
  H      -30.469    -217.374     130.252
  H      -32.352    -219.750     130.583
  H      -38.646    -216.282     125.276
  H      -37.923    -217.833     125.693
  H      -30.647    -219.817     130.090
  P      -32.614    -216.944     133.542
  C      -34.788    -215.787     132.805
  O      -33.821    -215.931     133.841
  O      -31.644    -217.100     134.663
  O      -33.364    -218.315     133.211
  H      -33.267    -218.944     133.951
  H      -35.540    -215.092     133.114
  H      -35.240    -216.736     132.605
  H      -34.310    -215.425     131.919

 6  7  8  9  10  11  12  13  14  15  25  28  32  33  34  35 0
 6-311+G(2d,p)
 ****
 36  39  40 0
 6-311+G(2d,p)
 ****
 1  2  3  4  5  16  17  18  19  20  21  22  23  24 0
 3-21G
 ****
 26  27  29  30  31  37  38  41  42  43  44  45  46  47 0
 3-21G
 ****
 48 0
 3-21G
 ****


