%nproc=1
%NoSave
%Mem=1900MB
#P OB98/GEN NMR

erre ene a

0 1
  C     -148.910     286.424     495.138
  O     -148.648     285.746     496.350
  H     -149.069     287.483     495.360
  H     -149.813     286.025     494.665
  H     -148.059     286.331     494.458
  P     -148.444     284.155     496.316
  C     -149.705     283.700     498.523
  O     -148.456     283.655     497.841
  C     -149.507     284.195     499.961
  O     -149.390     285.642     499.912
  C     -150.691     283.837     500.875
  O     -150.290     283.160     502.067
  C     -151.429     285.161     501.030
  O     -152.182     285.280     502.220
  C     -150.315     286.201     500.868
  N     -150.787     287.511     500.420
  C     -151.717     288.166     501.221
  O     -152.155     287.733     502.287
  N     -152.146     289.378     500.753
  C     -151.753     289.988     499.601
  O     -152.167     291.081     499.236
  C     -150.786     289.234     498.782
  C     -150.351     288.052     499.224
  O     -147.287     283.668     495.508
  O     -149.832     283.603     495.750
  H     -151.570     285.139     502.971
  H     -149.728     283.358     494.807
  H     -152.810     289.867     501.335
  H     -150.453     289.682     497.854
  H     -149.637     287.472     498.644
  H     -149.785     286.343     501.811
  H     -152.133     285.262     500.191
  H     -151.355     283.117     500.389
  H     -148.562     283.799     500.347
  H     -150.123     282.688     498.526
  H     -150.392     284.368     497.989
  P     -150.965     281.829     502.626
  C     -151.377     282.288     505.175
  O     -150.577     281.679     504.174
  O     -150.814     280.616     501.770
  O     -152.534     282.198     502.670
  H     -153.027     281.371     502.481
  H     -150.963     282.079     506.139
  H     -152.372     281.898     505.122
  H     -151.399     283.346     505.019

 6  7  8  9  10  11  12  13  14  15  16  26  31  32  33  34  35 0
 6-311+G(2d,p)
 ****
 36  37 0
 6-311+G(2d,p)
 ****
 1  2  3  4  5  17  18  19  20  21  22  23  24  25 0
 3-21G
 ****
 27  28  29  30  38  39  40  41  42  43  44  45 0
 3-21G
 ****


