%nproc=1
%NoSave
%Mem=1900MB
#P OB98/GEN NMR

erre ene a

0 1
  C      448.778      63.207     583.604
  O      449.891      64.052     583.949
  P      451.293      63.772     583.233
  C      451.519      66.262     582.470
  O      451.504      64.895     582.092
  C      451.964      67.133     581.297
  O      453.348      66.879     580.935
  C      451.177      66.918     580.027
  O      449.940      67.620     580.027
  C      452.117      67.506     578.975
  O      451.992      68.943     578.969
  C      453.485      67.088     579.507
  N      456.046      65.088     575.543
  C      455.661      66.351     575.836
  N      454.959      66.805     576.885
  C      454.678      65.799     577.729
  C      455.009      64.455     577.580
  C      455.731      64.107     576.426
  N      456.126      62.823     576.147
  N      454.545      63.718     578.640
  C      453.952      64.589     579.429
  N      453.997      65.868     578.919
  O      451.021      62.442     582.384
  O      452.441      63.612     584.176
  H      451.041      69.142     578.858
  H      451.838      61.898     582.352
  H      455.942      67.112     575.097
  H      453.473      64.349     580.382
  H      454.244      67.864     579.343
  H      451.884      67.149     577.961
  H      451.011      65.843     579.838
  H      451.879      68.194     581.602
  H      452.186      66.411     583.326
  H      456.663      62.656     575.312
  H      455.915      62.093     576.797
  H      450.517      66.552     582.798
  P      448.719      67.014     580.871
  C      449.662      68.223     582.962
  O      449.201      67.024     582.406
  O      448.743      65.460     580.452
  O      447.409      67.661     580.602
  H      447.841      65.091     580.496
  H      449.663      68.129     584.058
  H      449.028      69.063     582.682
  H      450.692      68.417     582.644
  H      447.914      63.511     584.158
  H      449.015      62.191     583.842
  H      448.578      63.291     582.556

 3  4  5  6  7  8  9  10  11  12  22  25  29  30  31  32 0
 6-311+G(2d,p)
 ****
 33  36  37 0
 6-311+G(2d,p)
 ****
 1  2  13  14  15  16  17  18  19  20  21  23  24  26 0
 3-21G
 ****
 27  28  34  35  38  39  40  41  42  43  44  45  46  47  48 0
 3-21G
 ****


