%nproc=1
%NoSave
%Mem=1900MB
#P OB98/GEN NMR

erre ene a

0 1
  C      387.762     750.529    -155.055
  O      386.571     750.423    -154.273
  P      385.445     751.533    -154.551
  C      383.664     749.955    -155.594
  O      384.551     751.042    -155.797
  C      382.254     750.304    -156.102
  O      381.550     751.190    -155.198
  C      382.272     750.994    -157.458
  O      382.436     750.047    -158.491
  C      380.886     751.661    -157.472
  O      379.870     750.734    -157.908
  C      380.686     752.034    -155.991
  N      378.605     756.624    -155.427
  C      378.052     755.456    -155.915
  N      376.737     755.507    -156.266
  N      378.718     754.332    -156.030
  C      379.999     754.434    -155.638
  C      380.653     755.524    -155.098
  C      379.918     756.765    -154.982
  O      380.356     757.815    -154.532
  N      381.945     755.211    -154.753
  C      382.109     753.969    -155.192
  N      380.944     753.433    -155.661
  O      386.283     752.772    -155.134
  O      384.671     751.911    -153.321
  H      380.198     750.235    -158.687
  H      386.282     753.496    -154.466
  H      378.052     757.471    -155.358
  H      383.036     753.410    -155.149
  H      379.654     751.833    -155.672
  H      380.860     752.508    -158.170
  H      376.176     756.347    -156.195
  H      383.056     751.763    -157.481
  H      376.319     754.658    -156.621
  H      381.687     749.362    -156.167
  H      383.616     749.707    -154.540
  H      384.063     749.069    -156.108
  P      383.904     749.856    -159.109
  C      383.916     747.291    -158.669
  O      384.531     748.536    -158.444
  O      384.736     751.059    -158.462
  O      383.961     749.891    -160.603
  H      385.287     751.477    -159.140
  H      384.658     746.508    -158.624
  H      383.409     747.251    -159.638
  H      383.172     747.111    -157.870
  H      388.436     749.743    -154.786
  H      388.226     751.475    -154.871
  H      387.515     750.448    -156.093

 3  4  5  6  7  8  9  10  11  12  23  26  30  31 0
 6-311+G(2d,p)
 ****
 33  35  36  37  38 0
 6-311+G(2d,p)
 ****
 1  2  13  14  15  16  17  18  19  20  21  22  24  25 0
 3-21G
 ****
 27  28  29  32  34  39  40  41  42  43  44  45  46  47  48  49 0
 3-21G
 ****


