%nproc=1
%NoSave
%Mem=1900MB
#P OB98/GEN NMR

erre ene a

0 1
  C     -248.822     387.134    -251.005
  O     -247.519     386.764    -251.400
  H     -249.156     386.460    -250.212
  H     -249.510     387.046    -251.851
  H     -248.836     388.161    -250.628
  P     -246.764     387.752    -252.415
  C     -244.533     386.887    -251.411
  O     -245.275     387.178    -252.586
  C     -243.327     387.827    -251.302
  O     -243.756     389.202    -251.431
  C     -242.587     387.736    -249.969
  O     -241.668     386.652    -249.941
  C     -241.862     389.076    -249.963
  O     -240.720     389.007    -250.842
  C     -242.928     390.012    -250.557
  N     -243.708     394.195    -247.802
  C     -242.715     393.908    -248.718
  N     -241.782     394.869    -248.925
  N     -242.624     392.778    -249.367
  C     -243.617     391.904    -249.051
  C     -244.656     392.080    -248.163
  C     -244.743     393.334    -247.455
  O     -245.613     393.647    -246.657
  N     -245.463     390.978    -248.121
  C     -244.904     390.124    -248.968
  N     -243.775     390.643    -249.552
  O     -246.544     389.080    -251.541
  O     -247.489     388.053    -253.683
  H     -240.376     389.919    -250.934
  H     -246.636     389.859    -252.128
  H     -243.716     395.077    -247.313
  H     -245.277     389.134    -249.189
  H     -242.493     390.815    -251.152
  H     -241.494     389.349    -248.975
  H     -241.761     395.740    -248.413
  H     -243.285     387.704    -249.121
  H     -241.063     394.695    -249.615
  H     -242.656     387.605    -252.135
  H     -244.173     385.850    -251.457
  H     -245.187     387.005    -250.534
  P     -241.815     385.576    -248.761
  C     -240.809     383.840    -250.400
  O     -240.769     384.411    -249.105
  O     -243.234     384.904    -249.060
  O     -241.742     386.145    -247.378
  H     -243.601     384.511    -248.241
  H     -240.058     383.082    -250.479
  H     -240.627     384.600    -251.131
  H     -241.772     383.406    -250.569

 6  7  8  9  10  11  12  13  14  15  26  29  33  34 0
 6-311+G(2d,p)
 ****
 36  38  39  40  41 0
 6-311+G(2d,p)
 ****
 1  2  3  4  5  16  17  18  19  20  21  22  23  24  25 0
 3-21G
 ****
 27  28  30  31  32  35  37  42  43  44  45  46  47 0
 3-21G
 ****
 48  49 0
 3-21G
 ****


