%nproc=1
%NoSave
%Mem=1900MB
#P OB98/GEN NMR

erre ene a

0 1
  C     -324.801    -479.348     542.056
  O     -323.423    -479.060     542.238
  H     -325.355    -478.973     542.922
  H     -324.952    -480.430     541.987
  H     -325.177    -478.859     541.154
  P     -322.435    -479.518     541.060
  C     -321.419    -481.549     542.329
  O     -321.199    -480.256     541.771
  C     -320.218    -481.954     543.178
  O     -319.047    -482.059     542.336
  C     -319.849    -480.943     544.252
  O     -320.693    -481.027     545.391
  C     -318.402    -481.333     544.543
  O     -318.325    -482.425     545.466
  C     -317.897    -481.757     543.159
  N     -313.270    -480.637     541.295
  C     -313.794    -481.780     541.775
  N     -315.043    -482.007     542.247
  C     -315.788    -480.883     542.146
  C     -315.391    -479.647     541.677
  C     -314.061    -479.538     541.226
  N     -313.513    -478.365     540.757
  N     -316.428    -478.731     541.777
  C     -317.431    -479.408     542.289
  N     -317.095    -480.719     542.529
  O     -321.810    -478.133     540.553
  O     -323.078    -480.278     539.948
  H     -318.892    -482.187     546.222
  H     -322.269    -477.844     539.744
  H     -313.118    -482.636     541.806
  H     -318.408    -479.007     542.511
  H     -317.274    -482.657     543.205
  H     -317.854    -480.492     544.972
  H     -319.865    -479.920     543.838
  H     -320.412    -482.944     543.624
  H     -321.566    -482.283     541.526
  H     -322.330    -481.516     542.946
  H     -312.544    -478.346     540.518
  H     -314.071    -477.518     540.807
  P     -321.891    -479.974     545.517
  C     -320.819    -478.934     547.661
  O     -321.961    -479.527     547.052
  O     -323.210    -480.864     545.318
  O     -321.829    -478.853     544.541
  H     -323.889    -480.351     544.836
  H     -321.040    -478.699     548.681
  H     -320.560    -478.038     547.137
  H     -319.998    -479.619     547.623

 6  7  8  9  10  11  12  13  14  15  25  28  32  33  34  35 0
 6-311+G(2d,p)
 ****
 36  37  40 0
 6-311+G(2d,p)
 ****
 1  2  3  4  5  16  17  18  19  20  21  22  23  24 0
 3-21G
 ****
 26  27  29  30  31  38  39 41  42  43  44  45  46  47  48 0
 3-21G
 ****


