%nproc=1
%NoSave
%Mem=1900MB
#P OB98/GEN NMR

erre ene a

0 1
  C      314.974    -213.131    -326.550
  O      315.225    -214.018    -327.619
  H      315.873    -213.055    -325.936
  H      314.161    -213.524    -325.936
  H      314.713    -212.133    -326.920
  P      314.208    -213.982    -328.858
  C      314.828    -211.626    -329.754
  O      314.869    -213.029    -329.970
  C      314.898    -210.878    -331.087
  O      314.625    -209.464    -330.839
  C      316.262    -210.975    -331.791
  O      316.046    -211.043    -333.205
  C      316.902    -209.637    -331.474
  O      317.904    -209.277    -332.417
  C      315.675    -208.726    -331.492
  N      318.807    -204.804    -331.500
  C      318.660    -205.837    -332.405
  N      319.516    -205.868    -333.447
  N      317.745    -206.767    -332.294
  C      316.939    -206.606    -331.218
  C      316.987    -205.634    -330.248
  C      318.013    -204.618    -330.372
  O      318.206    -203.690    -329.591
  N      316.033    -205.853    -329.287
  C      315.430    -206.970    -329.663
  N      315.947    -207.464    -330.829
  O      312.992    -213.109    -328.287
  O      313.750    -215.315    -329.350
  H      318.643    -209.914    -332.333
  H      312.303    -213.697    -327.931
  H      319.535    -204.123    -331.620
  H      314.637    -207.467    -329.122
  H      315.346    -208.488    -332.512
  H      317.356    -209.665    -330.477
  H      320.225    -205.170    -333.613
  H      316.868    -211.827    -331.468
  H      319.395    -206.598    -334.137
  H      314.096    -211.248    -331.737
  H      315.682    -211.332    -329.135
  H      313.905    -211.370    -329.221
  P      316.406    -212.416    -333.959
  C      313.927    -213.193    -333.901
  O      315.087    -212.964    -334.686
  O      316.619    -213.442    -332.751
  O      317.622    -212.330    -334.819
  H      317.311    -214.087    -332.980
  H      313.138    -213.555    -334.527
  H      313.623    -212.277    -333.438
  H      314.145    -213.919    -333.146

 6  7  8  9  10  11  12  13  14  15  26  29  33  34 0
 6-311+G(2d,p)
 ****
 36  38  39  40  41 0
 6-311+G(2d,p)
 ****
 1  2  3  4  5  16  17  18  19  20  21  22  23  24  25 0
 3-21G
 ****
 27  28  30  31  32  35  37  42  43  44  45  46  47 0
 3-21G
 ****
 48  49 0
 3-21G
 ****


