%nproc=1
%NoSave
%Mem=1900MB
#P OB98/GEN NMR

erre ene a

0 1
  C     -131.034    1020.521    -757.104
  O     -130.891    1021.540    -758.074
  H     -131.044    1020.981    -756.118
  H     -130.200    1019.817    -757.163
  H     -131.980    1019.997    -757.259
  P     -130.822    1021.069    -759.607
  C     -133.385    1021.398    -759.705
  O     -132.292    1020.508    -759.927
  C     -133.752    1022.134    -760.998
  O     -133.829    1021.219    -762.087
  C     -135.080    1022.869    -760.942
  O     -134.936    1024.131    -760.324
  C     -135.392    1023.001    -762.425
  O     -134.663    1024.122    -762.967
  C     -134.852    1021.684    -763.008
  N     -137.859    1019.297    -766.408
  C     -137.121    1020.424    -766.507
  N     -136.392    1021.038    -765.540
  C     -136.453    1020.351    -764.388
  C     -137.165    1019.187    -764.143
  C     -137.892    1018.646    -765.215
  N     -138.651    1017.484    -765.126
  N     -136.999    1018.768    -762.836
  C     -136.152    1019.634    -762.321
  N     -135.823    1020.635    -763.211
  O     -129.685    1020.169    -759.956
  O     -130.807    1022.487    -760.362
  H     -133.717    1023.972    -762.760
  H     -131.434    1023.104    -759.931
  H     -137.118    1020.911    -767.472
  H     -135.741    1019.583    -761.317
  H     -134.352    1021.845    -763.976
  H     -136.446    1023.185    -762.628
  H     -135.858    1022.257    -760.462
  H     -132.921    1022.834    -761.215
  H     -133.141    1022.117    -758.917
  H     -139.283    1017.285    -765.878
  H     -138.769    1017.086    -764.212
  H     -134.233    1020.792    -759.358
  P     -136.034    1024.701    -759.309
  C     -134.613    1024.397    -757.182
  O     -135.748    1023.938    -757.925
  O     -137.433    1024.619    -759.807
  O     -135.565    1026.198    -759.008
  H     -136.300    1026.709    -758.615
  H     -134.518    1023.822    -756.285
  H     -134.744    1025.429    -756.932
  H     -133.729    1024.283    -757.774

 6  7  8  9  10  11  12  13  14  15  25  28  32  33  34  35 0
 6-311+G(2d,p)
 ****
 36  39  40 0
 6-311+G(2d,p)
 ****
 1  2  3  4  5  16  17  18  19  20  21  22  23  24 0
 3-21G
 ****
 26  27  29  30  31  37  38  41  42  43  44  45  46  47 0
 3-21G
 ****
 48 0
 3-21G
 ****


