%nproc=1
%NoSave
%Mem=1900MB
#P OB98/GEN NMR

erre ene a

0 1
  C     -192.768     183.313    -116.412
  O     -194.089     183.810    -116.273
  P     -194.740     184.736    -117.407
  C     -194.011     187.071    -116.606
  O     -195.084     186.141    -116.705
  C     -194.512     188.411    -116.061
  O     -195.234     189.100    -117.112
  C     -195.449     188.273    -114.871
  O     -195.212     189.354    -113.967
  C     -196.835     188.438    -115.468
  O     -197.770     188.923    -114.482
  C     -196.556     189.403    -116.622
  N     -201.489     189.609    -118.019
  C     -200.881     189.847    -116.838
  N     -199.571     189.751    -116.532
  C     -198.854     189.413    -117.619
  C     -199.335     189.143    -118.890
  C     -200.724     189.249    -119.077
  N     -201.345     189.018    -120.286
  N     -198.299     188.798    -119.741
  C     -197.218     188.882    -119.002
  N     -197.499     189.263    -117.711
  O     -195.874     184.123    -118.153
  O     -193.520     185.105    -118.375
  H     -198.669     188.790    -114.847
  H     -193.813     185.117    -119.304
  H     -201.537     190.155    -116.027
  H     -196.214     188.673    -119.341
  H     -196.561     190.447    -116.288
  H     -197.201     187.472    -115.825
  H     -195.335     187.317    -114.346
  H     -193.637     189.027    -115.803
  H     -193.590     187.223    -117.605
  H     -202.326     189.237    -120.356
  H     -200.761     188.923    -121.110
  H     -193.230     186.656    -115.959
  P     -194.881     188.940    -112.443
  C     -196.886     190.169    -111.320
  O     -195.499     190.127    -111.557
  O     -193.436     188.625    -112.247
  O     -195.875     187.701    -112.235
  H     -196.645     187.749    -112.842
  H     -197.117     191.063    -110.731
  H     -197.198     189.289    -110.747
  H     -197.440     190.211    -112.264
  H     -192.518     182.720    -115.557
  H     -192.085     184.133    -116.489
  H     -192.704     182.711    -117.294

 3  4  5  6  7  8  9  10  11  12  22  25  29  30  31  32 0
 6-311+G(2d,p)
 ****
 33  36  37 0
 6-311+G(2d,p)
 ****
 1  2  13  14  15  16  17  18  19  20  21  23  24  26 0
 3-21G
 ****
 27  28  34  35  38  39  40  41  42  43  44  45  46  47  48 0
 3-21G
 ****


