%nproc=1
%NoSave
%Mem=1900MB
#P OB98/GEN NMR

erre ene a

0 1
  C     -223.649     209.774    -103.657
  O     -222.349     210.223    -103.997
  P     -221.063     209.326    -103.688
  C     -219.656     210.179    -101.638
  O     -220.744     209.424    -102.127
  C     -220.000     211.673    -101.738
  O     -221.333     211.910    -101.237
  C     -219.031     212.528    -100.924
  O     -217.981     213.012    -101.748
  C     -219.930     213.625    -100.386
  O     -220.132     214.648    -101.381
  C     -221.247     212.852    -100.134
  N     -221.381     212.092     -98.874
  C     -221.625     212.773     -97.687
  O     -221.770     213.991     -97.612
  N     -221.674     211.995     -96.553
  C     -221.549     210.634     -96.515
  O     -221.351     209.987     -95.496
  C     -221.566     209.960     -97.818
  C     -221.458     210.706     -98.919
  O     -219.872     210.157    -104.361
  O     -221.120     207.921    -104.191
  H     -220.849     215.225    -101.057
  H     -219.649     209.788    -105.235
  H     -221.710     212.496     -95.672
  H     -221.610     208.880     -97.837
  H     -221.431     210.228     -99.894
  H     -222.113     213.522    -100.202
  H     -219.477     214.122     -99.528
  H     -218.634     211.953    -100.077
  H     -219.979     211.972    -102.795
  H     -218.754     209.957    -102.220
  H     -219.444     209.908    -100.598
  P     -216.820     213.910    -101.102
  C     -217.182     216.296    -101.976
  O     -217.461     215.371    -100.938
  O     -215.502     213.861    -101.801
  O     -216.721     213.353     -99.600
  H     -215.985     212.712     -99.532
  H     -217.811     217.176    -101.841
  H     -217.393     215.850    -102.954
  H     -216.129     216.597    -101.927
  H     -224.368     210.513    -103.944
  H     -223.706     209.612    -102.601
  H     -223.855     208.858    -104.170

 3  4  5  6  7  8  9  10  11  12  13  23  28  29  30  31  32 0
 6-311+G(2d,p)
 ****
 33  34 0
 6-311+G(2d,p)
 ****
 1  2  14  15  16  17  18  19  20  21  22  24  25  26  27 0
 3-21G
 ****
 35  36  37  38  39  40  41  42  43  44  45 0
 3-21G
 ****


