%nproc=1
%NoSave
%Mem=1900MB
#P OB98/GEN NMR

erre ene a

0 1
  C      -21.923      22.077    -221.825
  O      -21.376      20.774    -221.741
  H      -22.974      22.036    -221.524
  H      -21.859      22.445    -222.851
  H      -21.389      22.756    -221.151
  P      -19.820      20.629    -222.103
  C      -18.558      21.066    -219.859
  O      -19.101      20.110    -220.762
  C      -17.932      20.357    -218.653
  O      -18.919      19.443    -218.082
  C      -16.695      19.512    -219.012
  O      -15.815      19.489    -217.868
  C      -17.305      18.130    -219.198
  O      -16.308      17.137    -219.161
  C      -18.314      18.137    -218.051
  N      -20.125      13.832    -215.990
  C      -19.157      14.689    -215.587
  N      -18.739      15.820    -216.191
  C      -19.452      16.053    -217.308
  C      -20.462      15.271    -217.846
  C      -20.797      14.105    -217.139
  N      -21.763      13.216    -217.554
  N      -20.932      15.826    -219.026
  C      -20.221      16.924    -219.190
  N      -19.316      17.103    -218.178
  O      -19.330      22.147    -222.232
  O      -19.513      19.831    -223.327
  H      -15.802      17.179    -218.326
  H      -19.395      22.438    -223.166
  H      -18.652      14.432    -214.658
  H      -20.307      17.621    -220.018
  H      -17.828      18.008    -217.072
  H      -17.811      18.054    -220.167
  H      -16.151      19.882    -219.884
  H      -17.698      21.097    -217.876
  H      -19.364      21.728    -219.525
  H      -17.793      21.656    -220.371
  H      -21.917      12.387    -217.005
  H      -22.242      13.387    -218.422
  P      -14.282      19.945    -218.051
  C      -14.472      22.537    -218.262
  O      -14.066      21.425    -217.476
  O      -14.192      20.177    -219.636
  O      -13.258      18.941    -217.618
  H      -13.380      19.760    -219.984
  H      -14.258      23.443    -217.735
  H      -15.523      22.475    -218.452
  H      -13.940      22.530    -219.191

 6  7  8  9  10  11  12  13  14  15  25  28  32  33  34  35 0
 6-311+G(2d,p)
 ****
 36  37  40 0
 6-311+G(2d,p)
 ****
 1  2  3  4  5  16  17  18  19  20  21  22  23  24 0
 3-21G
 ****
 26  27  29  30  31  38  39 41  42  43  44  45  46  47  48 0
 3-21G
 ****


