%nproc=1
%NoSave
%Mem=1900MB
#P OB98/GEN NMR

erre ene a

0 1
  C     -616.651      92.317     158.659
  O     -617.533      92.457     159.759
  H     -616.908      91.398     158.123
  H     -615.619      92.243     159.004
  H     -616.756      93.163     157.973
  P     -617.357      93.737     160.712
  C     -619.061      92.772     162.396
  O     -617.734      93.241     162.188
  C     -619.138      91.953     163.679
  O     -618.485      90.682     163.502
  C     -618.467      92.627     164.883
  O     -619.337      93.589     165.452
  C     -618.240      91.416     165.775
  O     -619.477      91.037     166.408
  C     -617.808      90.349     164.749
  N     -613.642      87.493     165.127
  C     -614.937      87.236     165.554
  N     -615.131      86.072     166.211
  N     -615.930      88.063     165.371
  C     -615.573      89.212     164.760
  C     -614.320      89.583     164.311
  C     -613.234      88.644     164.474
  O     -612.077      88.819     164.095
  N     -614.329      90.863     163.799
  C     -615.586      91.243     163.911
  N     -616.378      90.286     164.499
  O     -618.077      94.981     160.289
  O     -615.770      93.953     160.786
  H     -619.300      90.206     166.890
  H     -615.468      94.578     160.102
  H     -612.911      86.821     165.320
  H     -615.977      92.198     163.576
  H     -618.135      89.346     165.042
  H     -617.512      91.600     166.569
  H     -614.364      85.558     166.620
  H     -617.493      93.053     164.614
  H     -616.053      85.893     166.577
  H     -620.193      91.749     163.888
  H     -619.335      92.158     161.529
  H     -619.759      93.618     162.461
  P     -618.821      94.585     166.600
  C     -621.210      95.381     167.196
  O     -620.044      94.701     167.637
  O     -618.292      95.893     166.108
  O     -617.750      93.731     167.430
  H     -616.831      93.796     167.068
  H     -621.939      95.384     167.979
  H     -621.611      94.882     166.338
  H     -620.959      96.389     166.938

 6  7  8  9  10  11  12  13  14  15  26  29  33  34 0
 6-311+G(2d,p)
 ****
 36  38  39  40  41 0
 6-311+G(2d,p)
 ****
 1  2  3  4  5  16  17  18  19  20  21  22  23  24  25 0
 3-21G
 ****
 27  28  30  31  32  35  37  42  43  44  45  46  47 0
 3-21G
 ****
 48  49 0
 3-21G
 ****


