%nproc=1
%NoSave
%Mem=1900MB
#P OB98/GEN NMR

erre ene a

0 1
  C      133.485     404.378    -353.847
  O      134.210     403.271    -354.396
  P      134.103     402.960    -355.964
  C      132.333     402.043    -357.614
  O      132.581     402.621    -356.338
  C      131.014     401.267    -357.593
  O      131.208     399.888    -357.184
  C      130.013     401.834    -356.592
  O      129.450     403.096    -356.883
  C      129.053     400.672    -356.403
  O      128.068     400.631    -357.433
  C      130.003     399.454    -356.515
  N      130.309     398.851    -355.219
  C      129.904     397.533    -355.047
  O      129.287     396.900    -355.902
  N      130.203     396.965    -353.833
  C      130.824     397.590    -352.793
  O      131.046     397.041    -351.719
  C      131.201     398.994    -353.018
  C      130.935     399.550    -354.199
  O      135.118     402.010    -356.503
  O      134.299     404.418    -356.624
  H      128.534     400.480    -358.277
  H      134.867     404.309    -357.412
  H      129.929     396.005    -353.697
  H      131.691     399.521    -352.211
  H      131.208     400.587    -354.395
  H      129.558     398.676    -357.148
  H      128.516     400.736    -355.454
  H      130.540     401.962    -355.629
  H      130.598     401.258    -358.604
  H      133.156     401.376    -357.880
  H      132.319     402.836    -358.368
  P      130.139     404.480    -356.463
  C      130.819     405.662    -354.251
  O      130.168     404.561    -354.858
  O      129.721     405.705    -357.201
  O      131.681     404.191    -356.800
  H      132.097     405.023    -357.083
  H      130.757     405.545    -353.164
  H      130.327     406.595    -354.535
  H      131.874     405.687    -354.540
  H      133.670     404.439    -352.795
  H      132.438     404.239    -354.018
  H      133.806     405.283    -354.318

 3  4  5  6  7  8  9  10  11  12  13  23  28  29  30  31  32 0
 6-311+G(2d,p)
 ****
 33  34 0
 6-311+G(2d,p)
 ****
 1  2  14  15  16  17  18  19  20  21  22  24  25  26  27 0
 3-21G
 ****
 35  36  37  38  39  40  41  42  43  44  45 0
 3-21G
 ****


