%nproc=1
%NoSave
%Mem=1900MB
#P OB98/GEN NMR

erre ene a

0 1
  C      260.155    -232.543      62.119
  O      260.718    -233.839      62.152
  H      260.951    -231.812      62.284
  H      259.405    -232.425      62.905
  H      259.704    -232.354      61.142
  P      259.740    -235.107      62.096
  C      261.122    -236.525      60.448
  O      260.667    -236.381      61.787
  C      262.413    -235.736      60.228
  O      263.497    -236.425      60.908
  C      262.796    -235.587      58.751
  O      263.363    -234.289      58.563
  C      263.850    -236.659      58.572
  O      264.704    -236.372      57.481
  C      264.533    -236.680      59.942
  N      265.201    -237.959      60.180
  C      266.327    -238.232      59.397
  O      266.720    -237.409      58.567
  N      266.944    -239.449      59.519
  C      266.448    -240.343      60.314
  N      267.085    -241.544      60.359
  C      265.246    -240.112      61.140
  C      264.680    -238.911      61.027
  O      258.544    -234.977      61.215
  O      259.321    -235.327      63.626
  H      265.044    -235.455      57.566
  H      258.507    -234.827      63.824
  H      264.868    -240.893      61.782
  H      263.788    -238.655      61.586
  H      265.275    -235.876      60.021
  H      263.365    -237.624      58.374
  H      261.949    -235.727      58.072
  H      262.310    -234.756      60.708
  H      267.891    -241.665      59.756
  H      260.340    -236.141      59.785
  H      266.769    -242.330      60.905
  H      261.285    -237.584      60.224
  P      262.435    -233.041      58.166
  C      262.987    -230.732      59.124
  O      263.331    -231.707      58.143
  O      261.172    -232.925      58.955
  O      262.106    -233.287      56.616
  H      261.231    -232.909      56.409
  H      263.636    -229.886      59.029
  H      263.094    -231.156      60.101
  H      261.973    -230.422      58.979

 6  7  8  9  10  11  12  13  14  15  16  26  30  31  32  33  35 0
 6-311+G(2d,p)
 ****
 37  38 0
 6-311+G(2d,p)
 ****
 1  2  3  4  5  17  18  19  20  21  22  23  24  25 0
 3-21G
 ****
 27  28  29  34  36  39  40  41  42  43  44  45  46 0
 3-21G
 ****


