%nproc=1
%NoSave
%Mem=1900MB
#P OB98/GEN NMR

erre ene a

0 1
  C      -59.616     -87.954     219.221
  O      -60.603     -87.973     220.230
  H      -58.987     -87.071     219.362
  H      -60.087     -87.893     218.237
  H      -58.983     -88.844     219.276
  P      -61.545     -89.262     220.366
  C      -59.721     -90.694     221.500
  O      -61.004     -90.100     221.620
  C      -58.945     -90.582     222.818
  O      -58.531     -89.193     222.996
  C      -59.760     -90.974     224.067
  O      -58.831     -91.497     225.027
  C      -60.296     -89.620     224.495
  O      -60.864     -89.644     225.780
  C      -59.034     -88.773     224.284
  N      -59.236     -87.330     224.311
  C      -58.793     -86.636     225.432
  O      -58.238     -87.153     226.400
  N      -59.012     -85.283     225.419
  C      -59.603     -84.574     224.414
  O      -59.744     -83.358     224.444
  C      -60.057     -85.364     223.260
  C      -59.851     -86.683     223.258
  O      -61.747     -90.052     219.117
  O      -62.927     -88.661     220.912
  H      -63.567     -88.594     220.178
  H      -61.017     -88.721     226.080
  H      -58.694     -84.763     226.222
  H      -60.539     -84.835     222.450
  H      -60.167     -87.290     222.416
  H      -58.276     -89.042     225.027
  H      -61.095     -89.306     223.821
  H      -60.529     -91.723     223.859
  H      -58.029     -91.180     222.741
  H      -59.176     -90.174     220.706
  H      -59.837     -91.747     221.221
  P      -59.055     -92.877     225.815
  C      -56.627     -93.773     225.884
  O      -57.709     -93.215     226.622
  O      -59.533     -93.997     224.950
  O      -60.118     -92.541     226.963
  H      -60.608     -93.350     227.202
  H      -55.800     -93.948     226.540
  H      -56.333     -93.092     225.113
  H      -56.935     -94.699     225.444

 6  7  8  9  10  11  12  13  14  15  16  27  31  32  33  34  35 0
 6-311+G(2d,p)
 ****
 36  37 0
 6-311+G(2d,p)
 ****
 1  2  3  4  5  17  18  19  20  21  22  23  24  25 0
 3-21G
 ****
 26  28  29  30  38  39  40  41  42  43  44  45 0
 3-21G
 ****


