%nproc=1
%NoSave
%Mem=1900MB
#P OB98/GEN NMR

erre ene a

0 1
  C       47.897    1278.100     599.794
  O       47.426    1278.521     601.080
  P       48.279    1278.019     602.345
  C       49.778    1280.064     602.889
  O       49.698    1278.769     602.309
  C       51.231    1280.487     603.121
  O       51.864    1279.672     604.151
  C       52.114    1280.371     601.873
  O       53.068    1281.444     601.926
  C       52.838    1279.059     602.087
  O       54.005    1278.964     601.288
  C       53.080    1279.144     603.592
  N       56.832    1275.852     604.418
  C       56.807    1277.020     603.668
  N       57.980    1277.387     603.103
  N       55.753    1277.762     603.508
  C       54.658    1277.292     604.166
  C       54.560    1276.160     604.949
  C       55.737    1275.340     605.101
  O       55.805    1274.295     605.752
  N       53.288    1276.039     605.477
  C       52.630    1277.047     604.958
  N       53.423    1277.861     604.200
  O       48.638    1276.505     601.961
  O       47.540    1278.105     603.633
  H       54.394    1278.067     601.424
  H       48.039    1275.894     602.429
  H       57.675    1275.317     604.501
  H       51.583    1277.257     605.120
  H       53.906    1279.834     603.844
  H       52.183    1278.218     601.850
  H       58.848    1276.897     603.228
  H       51.562    1280.402     600.927
  H       58.012    1278.257     602.584
  H       51.232    1281.522     603.480
  H       49.248    1280.078     603.851
  H       49.246    1280.773     602.247
  P       52.962    1282.599     600.815
  C       52.417    1284.378     602.618
  O       52.029    1283.754     601.410
  O       52.053    1281.917     599.682
  O       54.266    1283.036     600.262
  H       52.389    1282.184     598.803
  H       52.000    1285.389     602.642
  H       53.507    1284.430     602.712
  H       52.019    1283.812     603.461
  H       47.255    1278.492     599.033
  H       47.896    1277.031     599.746
  H       48.892    1278.463     599.642

 3  4  5  6  7  8  9  10  11  12  23  26  30  31 0
 6-311+G(2d,p)
 ****
 33  35  36  37  38 0
 6-311+G(2d,p)
 ****
 1  2  13  14  15  16  17  18  19  20  21  22  24  25 0
 3-21G
 ****
 27  28  29  32  34  39  40  41  42  43  44  45  46  47  48  49 0
 3-21G
 ****


