%nproc=1
%NoSave
%Mem=1900MB
#P OB98/GEN NMR

erre ene a

0 1
  C       82.235      69.288    -601.143
  O       82.793      70.580    -600.998
  H       82.647      68.823    -602.044
  H       81.149      69.364    -601.253
  H       82.480      68.661    -600.278
  P       82.477      71.351    -599.628
  C       80.079      72.178    -600.183
  O       80.885      71.290    -599.425
  C       78.828      72.567    -599.400
  O       78.013      71.400    -599.139
  C       79.114      73.194    -598.034
  O       79.407      74.585    -598.142
  C       77.785      72.962    -597.336
  O       76.814      73.928    -597.805
  C       77.415      71.554    -597.823
  N       77.094      69.521    -593.186
  C       76.475      70.649    -593.711
  N       75.656      71.323    -592.879
  N       76.635      71.065    -594.936
  C       77.494      70.290    -595.656
  C       78.167      69.158    -595.248
  C       77.968      68.699    -593.892
  O       78.478      67.706    -593.383
  N       78.933      68.637    -596.260
  C       78.740      69.462    -597.270
  N       77.879      70.489    -596.953
  O       82.737      72.891    -600.001
  O       83.295      70.933    -598.451
  H       76.720      73.790    -598.763
  H       83.122      73.343    -599.223
  H       76.941      69.251    -592.230
  H       79.196      69.367    -598.246
  H       76.329      71.429    -597.939
  H       77.849      73.081    -596.255
  H       75.526      71.088    -591.904
  H       79.908      72.656    -597.505
  H       75.166      72.133    -593.247
  H       78.232      73.253    -600.021
  H       79.780      71.687    -601.117
  H       80.664      73.073    -600.430
  P       80.477      75.201    -597.115
  C       78.709      75.840    -595.317
  O       79.824      75.021    -595.654
  O       80.363      76.781    -597.377
  O       81.873      74.698    -597.280
  H       81.189      77.222    -597.103
  H       78.385      75.610    -594.323
  H       77.910      75.655    -596.004
  H       78.994      76.870    -595.370

 6  7  8  9  10  11  12  13  14  15  26  29  33  34 0
 6-311+G(2d,p)
 ****
 36  38  39  40  41 0
 6-311+G(2d,p)
 ****
 1  2  3  4  5  16  17  18  19  20  21  22  23  24  25 0
 3-21G
 ****
 27  28  30  31  32  35  37  42  43  44  45  46  47 0
 3-21G
 ****
 48  49 0
 3-21G
 ****


