%nproc=1
%NoSave
%Mem=1900MB
#P OB98/GEN NMR

erre ene a

0 1
  C      407.712     682.557     163.346
  O      407.549     681.785     162.177
  H      407.987     683.576     163.058
  H      408.518     682.136     163.954
  H      406.790     682.595     163.933
  P      406.726     680.414     162.269
  C      404.481     681.406     161.461
  O      405.178     680.787     162.528
  C      403.361     680.517     160.912
  O      402.464     680.157     161.982
  C      402.531     681.208     159.834
  O      403.047     681.090     158.523
  C      401.192     680.484     159.962
  O      401.150     679.302     159.143
  C      401.130     680.107     161.448
  N      396.642     680.662     163.840
  C      397.062     679.631     163.023
  N      396.165     678.655     162.787
  N      398.250     679.589     162.480
  C      399.013     680.680     162.725
  C      398.692     681.776     163.514
  C      397.404     681.777     164.165
  O      396.987     682.660     164.916
  N      399.690     682.712     163.492
  C      400.570     682.232     162.642
  N      400.241     680.969     162.206
  O      407.172     679.799     163.679
  O      406.968     679.436     161.162
  H      400.309     678.834     159.335
  H      407.148     678.826     163.633
  H      395.736     680.632     164.258
  H      401.485     682.727     162.330
  H      400.773     679.077     161.590
  H      400.365     681.122     159.629
  H      395.212     678.682     163.113
  H      402.377     682.260     160.085
  H      396.363     677.986     162.035
  H      403.806     679.583     160.538
  H      405.219     681.607     160.676
  H      404.072     682.376     161.778
  P      402.844     682.251     157.449
  C      405.302     683.116     157.803
  O      403.919     683.396     157.734
  O      401.465     682.927     157.901
  O      402.820     681.817     156.012
  H      400.727     682.591     157.357
  H      405.839     684.020     158.002
  H      405.629     682.704     156.871
  H      405.485     682.412     158.588

 6  7  8  9  10  11  12  13  14  15  26  29  33  34 0
 6-311+G(2d,p)
 ****
 36  38  39  40  41 0
 6-311+G(2d,p)
 ****
 1  2  3  4  5  16  17  18  19  20  21  22  23  24  25 0
 3-21G
 ****
 27  28  30  31  32  35  37  42  43  44  45  46  47 0
 3-21G
 ****
 48  49 0
 3-21G
 ****


