%nproc=1
%NoSave
%Mem=1900MB
#P OB98/GEN NMR

erre ene a

0 1
  C     -106.784    -114.640    -215.799
  O     -105.676    -115.505    -215.662
  H     -107.519    -115.111    -216.458
  H     -106.469    -113.693    -216.246
  H     -107.248    -114.456    -214.826
  P     -104.494    -115.014    -214.693
  C     -105.563    -116.277    -212.688
  O     -105.094    -115.038    -213.205
  C     -106.012    -116.095    -211.241
  O     -106.728    -117.274    -210.808
  C     -104.870    -115.921    -210.248
  O     -104.357    -114.600    -210.254
  C     -105.554    -116.300    -208.941
  O     -106.279    -115.196    -208.385
  C     -106.529    -117.399    -209.382
  N     -106.689    -121.139    -205.924
  C     -107.336    -119.955    -206.005
  N     -107.251    -119.019    -206.975
  C     -106.399    -119.412    -207.936
  C     -105.663    -120.584    -207.985
  C     -105.835    -121.479    -206.917
  N     -105.151    -122.667    -206.816
  N     -104.863    -120.606    -209.110
  C     -105.117    -119.473    -209.732
  N     -106.041    -118.724    -209.062
  O     -104.382    -113.452    -215.031
  O     -103.192    -115.720    -214.869
  H     -106.954    -114.945    -209.045
  H     -103.686    -113.312    -215.701
  H     -108.008    -119.729    -205.180
  H     -104.654    -119.150    -210.658
  H     -107.513    -117.293    -208.908
  H     -104.829    -116.621    -208.192
  H     -104.074    -116.647    -210.454
  H     -106.702    -115.243    -211.195
  H     -104.753    -117.014    -212.724
  H     -106.393    -116.629    -213.309
  H     -105.306    -123.249    -206.010
  H     -104.433    -122.879    -207.496
  P     -103.109    -114.259    -209.312
  C     -101.535    -114.470    -211.372
  O     -101.790    -114.834    -210.024
  O     -103.318    -115.232    -208.060
  O     -103.011    -112.830    -208.899
  H     -103.710    -114.745    -207.311
  H     -100.626    -114.930    -211.700
  H     -101.442    -113.406    -211.443
  H     -102.344    -114.799    -211.990

 6  7  8  9  10  11  12  13  14  15  25  28  32  33  34  35 0
 6-311+G(2d,p)
 ****
 36  37  40 0
 6-311+G(2d,p)
 ****
 1  2  3  4  5  16  17  18  19  20  21  22  23  24 0
 3-21G
 ****
 26  27  29  30  31  38  39 41  42  43  44  45  46  47  48 0
 3-21G
 ****


