%nproc=1
%NoSave
%Mem=1900MB
#P OB98/GEN NMR

erre ene a

0 1
  C      -10.230     320.991      53.530
  O       -9.787     319.957      52.649
  P       -8.523     320.183      51.684
  C       -8.149     320.897      49.253
  O       -9.032     320.248      50.159
  C       -8.780     321.193      47.886
  O       -9.063     319.967      47.168
  C      -10.084     321.993      47.940
  O      -10.095     322.806      46.760
  C      -11.139     320.902      47.853
  O      -12.413     321.398      47.463
  C      -10.471     319.932      46.871
  N      -11.013     318.580      46.969
  C      -11.627     318.061      45.826
  O      -11.743     318.750      44.814
  N      -12.140     316.783      45.871
  C      -12.129     316.127      46.992
  N      -12.674     314.882      46.982
  C      -11.568     316.671      48.246
  C      -11.027     317.884      48.157
  O       -7.379     319.251      51.917
  O       -8.081     321.697      51.986
  H      -12.303     321.919      46.642
  H       -7.117     321.785      51.847
  H      -11.605     316.095      49.161
  H      -10.582     318.371      49.021
  H      -10.600     320.279      45.835
  H      -11.255     320.427      48.836
  H      -10.183     322.606      48.838
  H       -8.033     321.740      47.292
  H      -13.069     314.552      46.106
  H       -7.264     320.260      49.110
  H      -12.818     314.330      47.819
  H       -7.797     321.832      49.709
  P       -9.579     324.322      46.767
  C      -10.692     326.630      46.779
  O      -10.861     325.244      47.042
  O       -8.772     324.715      45.571
  O       -8.727     324.462      48.117
  H       -8.153     325.251      48.057
  H      -11.672     327.117      46.796
  H      -10.236     326.785      45.794
  H      -10.059     327.077      47.551
  H      -11.078     320.648      54.084
  H      -10.502     321.854      52.959
  H       -9.441     321.246      54.206

 3  4  5  6  7  8  9  10  11  12  13  23  27  28  29  30  32 0
 6-311+G(2d,p)
 ****
 34  35 0
 6-311+G(2d,p)
 ****
 1  2  14  15  16  17  18  19  20  21  22  24  25  26 0
 3-21G
 ****
 31  33  36  37  38  39  40  41  42  43  44  45  46 0
 3-21G
 ****


