%nproc=1
%NoSave
%Mem=1900MB
#P OB98/GEN NMR

erre ene a

0 1
  C        1.118     322.932     134.340
  O        1.906     324.119     134.445
  P        1.721     324.971     135.795
  C       -0.098     326.593     134.926
  O        0.218     325.537     135.819
  C       -1.598     326.895     134.919
  O       -1.897     328.075     134.114
  C       -2.460     325.745     134.373
  O       -3.689     325.758     135.110
  C       -2.737     326.191     132.945
  O       -3.849     325.501     132.388
  C       -2.924     327.689     133.168
  N       -4.858     331.620     130.662
  C       -5.270     331.028     131.839
  N       -6.323     331.595     132.467
  N       -4.701     329.970     132.357
  C       -3.631     329.533     131.638
  C       -3.118     330.047     130.470
  C       -3.782     331.198     129.890
  O       -3.457     331.768     128.855
  N       -2.009     329.344     130.059
  C       -1.902     328.374     130.950
  N       -2.822     328.478     131.952
  O        2.621     326.266     135.535
  O        2.146     324.237     137.030
  H       -4.574     325.530     133.049
  H        3.480     326.181     135.993
  H       -5.348     332.426     130.300
  H       -1.160     327.595     130.928
  H       -3.901     327.925     133.607
  H       -1.861     325.995     132.313
  H       -6.781     332.439     132.154
  H       -1.990     324.762     134.424
  H       -6.621     331.202     133.350
  H       -1.906     327.123     135.948
  H        0.209     326.324     133.908
  H        0.485     327.483     135.195
  P       -3.923     324.599     136.183
  C       -5.798     323.344     134.903
  O       -4.470     323.319     135.391
  O       -5.214     325.105     136.991
  O       -2.778     324.354     137.107
  H       -5.113     324.892     137.939
  H       -5.870     322.682     134.032
  H       -6.097     324.352     134.600
  H       -6.482     322.987     135.679
  H        1.322     322.450     133.407
  H        0.080     323.187     134.390
  H        1.362     322.270     135.145

 3  4  5  6  7  8  9  10  11  12  23  26  30  31 0
 6-311+G(2d,p)
 ****
 33  35  36  37  38 0
 6-311+G(2d,p)
 ****
 1  2  13  14  15  16  17  18  19  20  21  22  24  25 0
 3-21G
 ****
 27  28  29  32  34  39  40  41  42  43  44  45  46  47  48  49 0
 3-21G
 ****


