%nproc=1
%NoSave
%Mem=1900MB
#P OB98/GEN NMR

erre ene a

0 1
  C     -257.439    -204.915     219.519
  O     -257.063    -204.321     218.291
  H     -258.472    -205.270     219.435
  H     -257.384    -204.177     220.325
  H     -256.790    -205.765     219.745
  P     -255.567    -203.749     218.207
  C     -254.192    -202.029     219.601
  O     -255.443    -202.661     219.380
  C     -254.382    -200.736     220.405
  O     -254.953    -199.721     219.528
  C     -255.341    -200.883     221.602
  O     -254.944    -199.928     222.602
  C     -256.665    -200.453     220.988
  O     -257.626    -200.194     221.986
  C     -256.181    -199.271     220.147
  N     -259.241    -195.476     218.603
  C     -258.364    -195.566     219.625
  N     -257.575    -196.604     219.966
  C     -257.740    -197.628     219.113
  C     -258.590    -197.678     218.018
  C     -259.375    -196.542     217.772
  N     -260.275    -196.449     216.735
  N     -258.486    -198.903     217.376
  C     -257.587    -199.573     218.072
  N     -257.116    -198.847     219.132
  O     -255.585    -202.869     216.868
  O     -254.485    -204.778     218.185
  H     -257.648    -200.921     222.645
  H     -255.249    -203.395     216.120
  H     -258.287    -194.681     220.259
  H     -257.251    -200.583     217.862
  H     -255.942    -198.399     220.764
  H     -257.075    -201.242     220.350
  H     -255.347    -201.884     222.032
  H     -253.400    -200.364     220.722
  H     -253.740    -201.801     218.629
  H     -253.533    -202.708     220.153
  H     -260.810    -195.601     216.640
  H     -260.397    -197.238     216.121
  P     -253.968    -200.403     223.790
  C     -254.245    -201.670     226.064
  O     -254.804    -201.322     224.807
  O     -253.790    -199.053     224.638
  O     -252.641    -200.939     223.363
  H     -252.928    -199.064     225.093
  H     -254.937    -202.281     226.605
  H     -254.042    -200.780     226.623
  H     -253.334    -202.211     225.912

 6  7  8  9  10  11  12  13  14  15  25  28  32  33  34  35 0
 6-311+G(2d,p)
 ****
 36  37  40 0
 6-311+G(2d,p)
 ****
 1  2  3  4  5  16  17  18  19  20  21  22  23  24 0
 3-21G
 ****
 26  27  29  30  31  38  39 41  42  43  44  45  46  47  48 0
 3-21G
 ****


