%nproc=1
%NoSave
%Mem=1900MB
#P OB98/GEN NMR

erre ene a

0 1
  C     -311.267    -856.983    -294.467
  O     -310.614    -856.223    -295.486
  P     -310.417    -856.778    -296.973
  C     -308.116    -857.862    -296.576
  O     -309.478    -858.083    -296.925
  C     -307.369    -859.180    -296.355
  O     -307.343    -859.966    -297.569
  C     -305.914    -859.022    -295.913
  O     -305.841    -858.712    -294.533
  C     -305.343    -860.378    -296.308
  O     -305.645    -861.365    -295.302
  C     -306.097    -860.687    -297.604
  N     -302.833    -862.418    -301.148
  C     -303.430    -863.018    -300.102
  N     -304.287    -862.491    -299.193
  C     -304.526    -861.202    -299.474
  C     -303.987    -860.444    -300.513
  C     -303.096    -861.110    -301.375
  N     -302.469    -860.486    -302.429
  N     -304.449    -859.147    -300.460
  C     -305.270    -859.118    -299.428
  N     -305.347    -860.340    -298.802
  O     -309.980    -855.745    -297.966
  O     -311.858    -857.370    -297.380
  H     -305.149    -862.174    -295.522
  H     -311.972    -857.323    -298.348
  H     -303.197    -864.073    -299.959
  H     -305.823    -858.251    -299.102
  H     -306.354    -861.751    -297.685
  H     -304.254    -860.355    -296.423
  H     -305.435    -858.242    -296.507
  H     -307.934    -859.767    -295.607
  H     -308.093    -857.265    -295.653
  H     -301.831    -861.024    -302.989
  H     -302.627    -859.495    -302.580
  H     -307.638    -857.293    -297.372
  P     -305.432    -857.240    -294.060
  C     -303.000    -857.893    -294.525
  O     -304.004    -856.910    -294.702
  O     -305.549    -856.977    -292.595
  O     -306.419    -856.296    -294.896
  H     -306.598    -855.475    -294.393
  H     -302.572    -857.801    -293.522
  H     -302.214    -857.734    -295.272
  H     -303.409    -858.909    -294.665
  H     -311.285    -856.419    -293.558
  H     -310.735    -857.898    -294.308
  H     -312.269    -857.201    -294.772

 3  4  5  6  7  8  9  10  11  12  22  25  29  30  31  32 0
 6-311+G(2d,p)
 ****
 33  36  37 0
 6-311+G(2d,p)
 ****
 1  2  13  14  15  16  17  18  19  20  21  23  24  26 0
 3-21G
 ****
 27  28  34  35  38  39  40  41  42  43  44  45  46  47  48 0
 3-21G
 ****


