%nproc=1
%NoSave
%Mem=1900MB
#P OB98/GEN NMR

erre ene a

0 1
  C     -641.326     120.284     280.531
  O     -640.527     119.121     280.604
  H     -641.209     120.850     281.458
  H     -642.375     120.005     280.418
  H     -641.015     120.914     279.692
  P     -640.356     118.258     279.264
  C     -640.932     116.136     280.654
  O     -640.050     116.750     279.728
  C     -640.148     115.248     281.616
  O     -639.447     114.232     280.841
  C     -639.093     116.001     282.441
  O     -639.038     115.410     283.747
  C     -637.804     115.703     281.704
  O     -636.638     115.827     282.505
  C     -638.060     114.263     281.234
  N     -637.192     113.872     280.130
  C     -636.122     113.031     280.431
  O     -635.900     112.537     281.530
  N     -635.271     112.766     279.385
  C     -635.371     113.264     278.114
  O     -634.569     113.005     277.228
  C     -636.521     114.147     277.866
  C     -637.361     114.409     278.869
  O     -638.952     118.763     278.688
  O     -641.464     118.388     278.270
  H     -639.083     119.524     278.091
  H     -636.561     116.764     282.770
  H     -634.491     112.168     279.580
  H     -636.627     114.571     276.874
  H     -638.205     115.071     278.722
  H     -637.939     113.567     282.070
  H     -637.698     116.382     280.847
  H     -639.279     117.075     282.531
  H     -640.853     114.723     282.269
  H     -641.659     115.521     280.110
  H     -641.475     116.914     281.206
  P     -638.553     116.342     284.958
  C     -637.017     114.572     286.131
  O     -638.214     115.339     286.162
  O     -639.927     117.026     285.387
  O     -637.466     117.285     284.569
  H     -640.696     116.437     285.295
  H     -636.960     113.965     287.010
  H     -636.173     115.229     286.096
  H     -637.017     113.945     285.264

 6  7  8  9  10  11  12  13  14  15  16  27  31  32  33  34  35 0
 6-311+G(2d,p)
 ****
 36  37 0
 6-311+G(2d,p)
 ****
 1  2  3  4  5  17  18  19  20  21  22  23  24  25 0
 3-21G
 ****
 26  28  29  30  38  39  40  41  42  43  44  45 0
 3-21G
 ****


