%nproc=1
%NoSave
%Mem=1900MB
#P OB98/GEN NMR

erre ene a

0 1
  C     -537.124     510.235     580.956
  O     -535.922     510.981     580.897
  H     -536.966     509.287     580.432
  H     -537.945     510.776     580.470
  H     -537.380     510.020     581.994
  P     -535.970     512.526     581.355
  C     -533.760     512.587     582.696
  O     -534.435     512.976     581.494
  C     -532.243     512.586     582.507
  O     -531.809     511.381     581.839
  C     -531.729     513.731     581.641
  O     -531.880     515.018     582.195
  C     -530.330     513.229     581.275
  O     -529.375     513.496     582.303
  C     -530.573     511.704     581.164
  N     -530.593     511.242     579.780
  C     -529.345     510.997     579.202
  O     -528.283     511.170     579.789
  N     -529.363     510.575     577.897
  C     -530.493     510.426     577.114
  O     -530.427     510.067     575.951
  C     -531.761     510.745     577.768
  C     -531.768     511.128     579.052
  O     -536.807     512.817     582.566
  O     -536.458     513.303     580.037
  H     -528.504     513.191     581.961
  H     -536.761     514.215     580.254
  H     -528.480     510.372     577.470
  H     -532.670     510.642     577.176
  H     -532.693     511.367     579.553
  H     -529.776     511.145     581.687
  H     -529.967     513.682     580.362
  H     -532.308     513.734     580.702
  H     -531.775     512.611     583.505
  H     -534.095     511.574     582.948
  H     -534.049     513.260     583.512
  P     -532.110     516.337     581.324
  C     -532.622     517.549     583.588
  O     -532.040     517.612     582.301
  O     -533.226     516.280     580.330
  O     -530.721     516.441     580.505
  H     -530.937     516.817     579.625
  H     -532.478     518.483     584.090
  H     -532.159     516.766     584.151
  H     -533.669     517.351     583.496

 6  7  8  9  10  11  12  13  14  15  16  26  31  32  33  34  35 0
 6-311+G(2d,p)
 ****
 36  37 0
 6-311+G(2d,p)
 ****
 1  2  3  4  5  17  18  19  20  21  22  23  24  25 0
 3-21G
 ****
 27  28  29  30  38  39  40  41  42  43  44  45 0
 3-21G
 ****


