%nproc=1
%NoSave
%Mem=1900MB
#P OB98/GEN NMR

erre ene a

0 1
  C      128.877    -305.982      37.084
  O      128.577    -304.737      37.674
  H      128.700    -306.770      37.822
  H      129.930    -306.005      36.792
  H      128.249    -306.173      36.209
  P      128.320    -303.476      36.724
  C      125.838    -304.175      36.617
  O      126.981    -303.762      35.880
  C      124.550    -303.570      36.054
  O      123.425    -303.932      36.883
  C      124.588    -302.042      36.032
  O      125.221    -301.468      34.905
  C      123.103    -301.695      36.060
  O      122.548    -301.704      34.732
  C      122.504    -302.826      36.901
  N      119.606    -300.062      40.072
  C      119.583    -300.110      38.693
  N      118.716    -299.273      38.080
  N      120.353    -300.895      37.985
  C      121.234    -301.604      38.728
  C      121.362    -301.630      40.098
  C      120.465    -300.797      40.877
  O      120.450    -300.712      42.102
  N      122.369    -302.478      40.493
  C      122.895    -302.902      39.365
  N      122.222    -302.424      38.264
  O      129.465    -303.607      35.607
  O      128.378    -302.140      37.400
  H      121.577    -301.684      34.806
  H      129.674    -302.729      35.241
  H      118.973    -299.460      40.565
  H      123.740    -303.581      39.287
  H      121.561    -303.189      36.470
  H      122.927    -300.694      36.467
  H      118.189    -298.568      38.574
  H      125.047    -301.660      36.950
  H      118.854    -299.086      37.084
  H      124.362    -303.985      35.056
  H      125.989    -303.840      37.644
  H      125.773    -305.265      36.635
  P      125.373    -299.877      34.794
  C      127.951    -299.975      35.139
  O      126.710    -299.478      35.587
  O      124.195    -299.341      35.735
  O      125.271    -299.328      33.411
  H      123.411    -299.123      35.202
  H      128.731    -299.614      35.777
  H      128.127    -299.643      34.137
  H      127.937    -301.045      35.163

 6  7  8  9  10  11  12  13  14  15  26  29  33  34 0
 6-311+G(2d,p)
 ****
 36  38  39  40  41 0
 6-311+G(2d,p)
 ****
 1  2  3  4  5  16  17  18  19  20  21  22  23  24  25 0
 3-21G
 ****
 27  28  30  31  32  35  37  42  43  44  45  46  47 0
 3-21G
 ****
 48  49 0
 3-21G
 ****


