%nproc=1
%NoSave
%Mem=1900MB
#P OB98/GEN NMR

erre ene a

0 1
  C     -185.154     511.942     242.671
  O     -184.785     511.083     241.575
  P     -185.803     510.060     240.870
  C     -187.409     511.463     239.405
  O     -186.225     510.674     239.450
  C     -188.628     510.590     239.054
  O     -189.854     511.320     239.308
  C     -188.732     510.179     237.592
  O     -187.796     509.184     237.241
  C     -190.188     509.729     237.512
  O     -190.337     508.368     237.945
  C     -190.881     510.678     238.514
  N     -191.740     511.661     237.875
  C     -192.841     511.168     237.171
  O     -193.008     509.958     237.046
  N     -193.721     512.075     236.615
  C     -193.459     513.339     236.669
  N     -194.373     514.183     236.104
  C     -192.236     513.888     237.273
  C     -191.426     513.003     237.855
  O     -186.965     509.676     241.725
  O     -184.918     508.781     240.489
  H     -185.486     507.991     240.456
  H     -191.297     508.165     237.896
  H     -192.036     514.956     237.253
  H     -190.514     513.323     238.344
  H     -191.479     510.105     239.237
  H     -190.595     509.795     236.495
  H     -188.589     511.066     236.962
  H     -188.612     509.695     239.700
  H     -195.209     513.777     235.712
  H     -187.294     512.229     238.633
  H     -194.278     515.188     236.116
  H     -187.554     511.957     240.373
  P     -186.649     509.592     236.198
  C     -185.414     511.650     237.188
  O     -185.450     510.251     237.026
  O     -187.289     510.833     235.402
  O     -186.246     508.505     235.263
  H     -187.043     510.783     234.462
  H     -184.879     511.891     238.108
  H     -186.425     512.080     237.236
  H     -184.876     512.108     236.344
  H     -184.308     512.527     242.966
  H     -185.481     511.346     243.497
  H     -185.947     512.591     242.364

 3  4  5  6  7  8  9  10  11  12  13  24  27  28  29  30  32 0
 6-311+G(2d,p)
 ****
 34  35 0
 6-311+G(2d,p)
 ****
 1  2  14  15  16  17  18  19  20  21  22  23  25  26 0
 3-21G
 ****
 31  33  36  37  38  39  40  41  42  43  44  45  46 0
 3-21G
 ****


