%nproc=1
%NoSave
%Mem=1900MB
#P OB98/GEN NMR

erre ene a

0 1
  C       11.422      64.433     -23.193
  O       12.003      64.219     -24.464
  H       10.588      63.739     -23.067
  H       11.044      65.456     -23.103
  H       12.159      64.240     -22.407
  P       13.082      65.286     -24.991
  C       14.607      63.414     -25.911
  O       14.488      64.505     -25.001
  C       15.081      62.148     -25.192
  O       14.003      61.586     -24.415
  C       15.515      61.035     -26.132
  O       16.712      61.304     -26.832
  C       15.425      59.801     -25.244
  O       16.599      59.571     -24.471
  C       14.247      60.169     -24.308
  N       13.051      59.385     -24.600
  C       13.015      58.107     -24.058
  O       13.930      57.628     -23.383
  N       11.902      57.365     -24.343
  C       10.871      57.754     -25.149
  O        9.916      57.027     -25.403
  C       10.975      59.108     -25.717
  C       12.045      59.853     -25.423
  O       13.119      66.592     -24.256
  O       12.740      65.434     -26.548
  H       16.700      60.334     -23.869
  H       13.153      66.247     -26.927
  H       11.853      56.440     -23.950
  H       10.175      59.451     -26.361
  H       12.147      60.856     -25.830
  H       14.522      59.980     -23.262
  H       15.246      58.897     -25.832
  H       14.740      60.917     -26.899
  H       15.889      62.422     -24.504
  H       15.346      63.694     -26.669
  H       13.645      63.238     -26.404
  P       16.781      61.475     -28.420
  C       17.430      63.990     -28.315
  O       16.496      63.019     -28.772
  O       16.113      60.418     -29.239
  O       18.370      61.357     -28.680
  H       18.493      60.917     -29.543
  H       17.111      64.964     -28.622
  H       18.393      63.782     -28.732
  H       17.488      63.954     -27.247

 6  7  8  9  10  11  12  13  14  15  16  26  31  32  33  34  35 0
 6-311+G(2d,p)
 ****
 36  37 0
 6-311+G(2d,p)
 ****
 1  2  3  4  5  17  18  19  20  21  22  23  24  25 0
 3-21G
 ****
 27  28  29  30  38  39  40  41  42  43  44  45 0
 3-21G
 ****


