%nproc=1
%NoSave
%Mem=1900MB
#P OB98/GEN NMR

erre ene a

0 1
  C     -135.988    -372.178    -420.531
  O     -136.910    -372.416    -421.576
  H     -136.235    -372.831    -419.689
  H     -136.063    -371.139    -420.199
  H     -134.964    -372.393    -420.858
  P     -136.603    -371.704    -422.981
  C     -138.005    -369.674    -422.161
  O     -136.789    -370.125    -422.742
  C     -137.720    -368.617    -421.096
  O     -136.714    -369.095    -420.174
  C     -137.194    -367.298    -421.654
  O     -138.251    -366.461    -422.115
  C     -136.537    -366.712    -420.408
  O     -137.551    -366.181    -419.527
  C     -135.891    -367.959    -419.783
  N     -131.000    -367.122    -418.727
  C     -132.137    -366.705    -418.063
  N     -131.947    -365.946    -416.957
  N     -133.356    -366.992    -418.440
  C     -133.397    -367.750    -419.568
  C     -132.344    -368.229    -420.314
  C     -131.003    -367.903    -419.879
  O     -129.965    -368.265    -420.421
  N     -132.779    -368.966    -421.385
  C     -134.094    -368.921    -421.291
  N     -134.521    -368.190    -420.212
  O     -137.877    -372.094    -423.878
  O     -135.332    -372.113    -423.643
  H     -137.851    -365.340    -419.921
  H     -137.583    -372.223    -424.801
  H     -130.092    -366.858    -418.400
  H     -134.780    -369.399    -421.981
  H     -135.881    -367.918    -418.690
  H     -135.853    -365.898    -420.636
  H     -131.040    -365.643    -416.643
  H     -136.432    -367.458    -422.424
  H     -132.762    -365.658    -416.433
  H     -138.644    -368.456    -420.521
  H     -138.520    -370.525    -421.700
  H     -138.644    -369.256    -422.951
  P     -138.296    -366.121    -423.684
  C     -137.364    -363.780    -423.058
  O     -137.249    -364.922    -423.901
  O     -139.721    -365.405    -423.857
  O     -138.145    -367.299    -424.588
  H     -140.024    -365.479    -424.781
  H     -136.607    -363.069    -423.315
  H     -137.243    -364.077    -422.037
  H     -138.329    -363.336    -423.188

 6  7  8  9  10  11  12  13  14  15  26  29  33  34 0
 6-311+G(2d,p)
 ****
 36  38  39  40  41 0
 6-311+G(2d,p)
 ****
 1  2  3  4  5  16  17  18  19  20  21  22  23  24  25 0
 3-21G
 ****
 27  28  30  31  32  35  37  42  43  44  45  46  47 0
 3-21G
 ****
 48  49 0
 3-21G
 ****


