%nproc=1
%NoSave
%Mem=1900MB
#P OB98/GEN NMR

erre ene a

0 1
  C        5.555     -53.136      88.506
  O        6.350     -52.057      87.997
  P        6.336     -51.602      86.458
  C        4.584     -49.711      86.487
  O        5.960     -50.044      86.366
  C        4.386     -48.259      86.935
  O        5.180     -47.990      88.131
  C        4.778     -47.209      85.880
  O        3.816     -46.153      85.975
  C        6.146     -46.763      86.373
  O        6.567     -45.521      85.840
  C        5.890     -46.758      87.883
  N        7.081     -46.670      88.722
  C        7.335     -45.454      89.368
  O        6.616     -44.472      89.193
  N        8.428     -45.367      90.196
  C        9.203     -46.393      90.362
  N       10.261     -46.241      91.203
  C        8.985     -47.684      89.688
  C        7.917     -47.751      88.894
  O        5.487     -52.469      85.585
  O        7.865     -51.655      85.984
  H        7.903     -51.948      85.053
  H        7.443     -45.315      86.216
  H        9.651     -48.516      89.860
  H        7.670     -48.677      88.384
  H        5.206     -45.939      88.133
  H        6.885     -47.517      86.086
  H        4.778     -47.595      84.856
  H        3.335     -48.134      87.224
  H       10.373     -45.342      91.656
  H        4.130     -50.374      87.231
  H       10.923     -46.975      91.411
  H        4.088     -49.885      85.526
  P        2.998     -45.705      84.670
  C        1.467     -47.804      84.485
  O        1.563     -46.416      84.728
  O        3.733     -46.546      83.517
  O        3.026     -44.247      84.340
  H        3.620     -46.088      82.665
  H        0.803     -48.246      85.233
  H        2.436     -48.304      84.541
  H        1.038     -47.963      83.492
  H        5.735     -53.248      89.555
  H        5.817     -54.042      88.000
  H        4.519     -52.924      88.343

 3  4  5  6  7  8  9  10  11  12  13  24  27  28  29  30  32 0
 6-311+G(2d,p)
 ****
 34  35 0
 6-311+G(2d,p)
 ****
 1  2  14  15  16  17  18  19  20  21  22  23  25  26 0
 3-21G
 ****
 31  33  36  37  38  39  40  41  42  43  44  45  46 0
 3-21G
 ****


