%nproc=1
%NoSave
%Mem=1900MB
#P OB98/GEN NMR

erre ene a

0 1
  C      -76.421    -144.870    -291.960
  O      -75.128    -144.744    -291.396
  P      -75.035    -144.278    -289.862
  C      -75.801    -141.867    -290.472
  O      -74.789    -142.694    -289.901
  C      -75.401    -140.398    -290.377
  O      -75.410    -139.971    -289.003
  C      -74.002    -140.103    -290.889
  O      -73.984    -140.075    -292.304
  C      -73.723    -138.754    -290.238
  O      -74.228    -137.679    -291.043
  C      -74.499    -138.855    -288.905
  N      -73.617    -138.990    -287.756
  C      -72.941    -137.826    -287.370
  O      -73.096    -136.781    -288.003
  N      -72.078    -137.891    -286.301
  C      -71.908    -139.015    -285.680
  N      -71.044    -139.019    -284.627
  C      -72.586    -140.268    -286.069
  C      -73.414    -140.185    -287.109
  O      -73.626    -144.864    -289.388
  O      -76.164    -144.741    -289.001
  H      -73.696    -137.692    -291.865
  H      -73.621    -145.018    -288.424
  H      -72.406    -141.180    -285.519
  H      -73.953    -141.057    -287.463
  H      -75.119    -137.964    -288.753
  H      -72.651    -138.577    -290.109
  H      -73.291    -140.850    -290.514
  H      -76.145    -139.805    -290.925
  H      -70.591    -138.148    -284.391
  H      -76.739    -142.015    -289.928
  H      -70.860    -139.838    -284.067
  H      -75.950    -142.164    -291.515
  P      -72.889    -140.974    -293.051
  C      -70.954    -139.341    -292.629
  O      -71.802    -139.928    -293.597
  O      -73.657    -141.390    -294.394
  O      -72.357    -142.156    -292.313
  H      -73.120    -142.034    -294.898
  H      -70.174    -138.779    -293.144
  H      -70.488    -140.113    -292.009
  H      -71.528    -138.653    -292.000
  H      -76.336    -145.185    -292.979
  H      -76.922    -143.925    -291.919
  H      -76.982    -145.595    -291.408

 3  4  5  6  7  8  9  10  11  12  13  21  23  27  28  29  30  32 0
 6-311+G(2d,p)
 ****
 34  35 0
 6-311+G(2d,p)
 ****
 1  2  14  15  16  17  18  19  20  22  24  25  26 0
 3-21G
 ****
 31  33  36  37  38  39  40  41  42  43  44  45  46 0
 3-21G
 ****


