%nproc=1
%NoSave
%Mem=1900MB
#P OB98/GEN NMR

erre ene a

0 1
  C       54.890     -92.641    -210.473
  O       53.725     -93.411    -210.770
  P       52.911     -93.104    -212.119
  C       51.647     -95.338    -212.011
  O       51.531     -93.924    -212.088
  C       51.970     -95.822    -210.591
  O       50.945     -95.398    -209.653
  C       52.103     -97.346    -210.459
  O       53.129     -97.595    -209.491
  C       50.744     -97.745    -209.918
  O       50.752     -99.033    -209.325
  C       50.473     -96.574    -208.968
  N       49.069     -96.461    -208.608
  C       48.625     -97.217    -207.522
  O       49.386     -98.017    -206.977
  N       47.325     -97.065    -207.104
  C       46.508     -96.343    -207.806
  N       45.234     -96.201    -207.349
  C       46.899     -95.675    -209.062
  C       48.185     -95.755    -209.385
  O       53.694     -93.235    -213.382
  O       52.424     -91.591    -211.901
  H       49.901     -99.175    -208.860
  H       52.422     -91.133    -212.766
  H       46.163     -95.152    -209.656
  H       48.572     -95.295    -210.282
  H       51.063     -96.675    -208.047
  H       50.012     -97.753    -210.734
  H       52.370     -97.843    -211.398
  H       52.909     -95.347    -210.280
  H       44.974     -96.685    -206.499
  H       52.436     -95.670    -212.691
  H       44.552     -95.613    -207.811
  H       50.720     -95.792    -212.379
  P       54.410     -98.460    -209.920
  C       56.491     -97.479    -208.713
  O       55.453     -98.435    -208.705
  O       55.118     -97.486    -210.985
  O       54.129     -99.786    -210.549
  H       55.659     -98.025    -211.593
  H       56.918     -97.418    -207.707
  H       56.119     -96.489    -208.991
  H       57.275     -97.788    -209.410
  H       55.309     -92.971    -209.546
  H       54.624     -91.607    -210.396
  H       55.610     -92.767    -211.255

 3  4  5  6  7  8  9  10  11  12  13  23  27  28  29  30  32 0
 6-311+G(2d,p)
 ****
 34  35 0
 6-311+G(2d,p)
 ****
 1  2  14  15  16  17  18  19  20  21  22  24  25  26 0
 3-21G
 ****
 31  33  36  37  38  39  40  41  42  43  44  45  46 0
 3-21G
 ****


