%nproc=1
%NoSave
%Mem=1900MB
#P OB98/GEN NMR

erre ene a

0 1
  C     -567.797      29.507     -98.128
  O     -567.419      30.483     -97.149
  P     -568.297      31.825     -97.077
  C     -569.331      32.105     -94.701
  O     -568.245      32.386     -95.575
  C     -569.218      32.946     -93.417
  O     -568.014      32.625     -92.695
  C     -569.138      34.434     -93.695
  O     -570.423      34.960     -93.987
  C     -568.541      34.969     -92.390
  O     -569.560      35.301     -91.436
  C     -567.690      33.779     -91.890
  N     -566.258      34.054     -91.911
  C     -565.702      34.496     -90.709
  O     -566.416      34.650     -89.711
  N     -564.356      34.778     -90.670
  C     -563.641      34.654     -91.750
  N     -562.313      34.950     -91.651
  C     -564.199      34.214     -93.050
  C     -565.503      33.940     -93.064
  O     -569.802      31.288     -97.218
  O     -567.966      32.827     -98.134
  H     -570.105      35.999     -91.858
  H     -570.351      31.946     -97.682
  H     -563.562      34.136     -93.921
  H     -565.997      33.612     -93.972
  H     -567.964      33.518     -90.855
  H     -567.950      35.879     -92.563
  H     -568.443      34.633     -94.524
  H     -570.086      32.724     -92.777
  H     -561.968      35.247     -90.752
  H     -569.348      31.044     -94.442
  H     -561.670      34.895     -92.428
  H     -570.274      32.314     -95.221
  P     -570.573      35.860     -95.310
  C     -573.059      35.334     -95.748
  O     -572.122      36.307     -95.329
  O     -570.539      34.748     -96.471
  O     -569.564      36.931     -95.534
  H     -570.528      35.177     -97.347
  H     -574.062      35.689     -95.522
  H     -572.890      34.382     -95.235
  H     -572.976      35.189     -96.831
  H     -567.135      28.668     -98.070
  H     -567.739      29.940     -99.105
  H     -568.800      29.184     -97.941

 3  4  5  6  7  8  9  10  11  12  13  21  23  27  28  29  30  32 0
 6-311+G(2d,p)
 ****
 34  35 0
 6-311+G(2d,p)
 ****
 1  2  14  15  16  17  18  19  20  22  24  25  26 0
 3-21G
 ****
 31  33  36  37  38  39  40  41  42  43  44  45  46 0
 3-21G
 ****


