%nproc=1
%NoSave
%Mem=1900MB
#P OB98/GEN NMR

erre ene a

0 1
  C     -346.686    -116.429    -857.882
  O     -345.837    -116.494    -856.750
  H     -347.655    -116.857    -857.613
  H     -346.259    -117.007    -858.703
  H     -346.828    -115.391    -858.188
  P     -344.352    -115.894    -856.926
  C     -343.747    -117.046    -854.672
  O     -343.386    -116.801    -856.028
  C     -342.778    -118.050    -854.052
  O     -342.876    -119.319    -854.754
  C     -341.313    -117.639    -854.154
  O     -340.956    -116.673    -853.187
  C     -340.619    -118.976    -853.962
  O     -340.490    -119.308    -852.581
  C     -341.581    -119.962    -854.656
  N     -339.369    -123.671    -857.375
  C     -339.789    -123.624    -856.091
  N     -340.378    -122.593    -855.452
  C     -340.558    -121.554    -856.275
  C     -340.182    -121.461    -857.607
  C     -339.564    -122.591    -858.178
  N     -339.124    -122.641    -859.467
  N     -340.496    -120.217    -858.113
  C     -341.055    -119.569    -857.116
  N     -341.118    -120.337    -855.983
  O     -344.431    -114.508    -856.123
  O     -343.917    -115.696    -858.341
  H     -340.187    -118.494    -852.128
  H     -344.554    -113.775    -856.754
  H     -339.608    -124.509    -855.503
  H     -341.423    -118.544    -857.149
  H     -341.717    -120.880    -854.079
  H     -339.619    -118.962    -854.403
  H     -341.099    -117.269    -855.173
  H     -343.062    -118.220    -853.001
  H     -344.761    -117.455    -854.634
  H     -343.732    -116.100    -854.123
  H     -338.621    -123.458    -859.782
  H     -339.156    -121.799    -860.025
  P     -339.708    -115.716    -853.520
  C     -339.696    -115.019    -851.002
  O     -338.945    -115.436    -852.132
  O     -340.388    -114.301    -853.871
  O     -338.830    -116.203    -854.620
  H     -339.872    -113.852    -854.565
  H     -339.039    -114.878    -850.169
  H     -340.423    -115.767    -850.761
  H     -340.193    -114.098    -851.224

 6  7  8  9  10  11  12  13  14  15  25  28  32  33  34  35 0
 6-311+G(2d,p)
 ****
 36  37  40 0
 6-311+G(2d,p)
 ****
 1  2  3  4  5  16  17  18  19  20  21  22  23  24 0
 3-21G
 ****
 26  27  29  30  31  38  39 41  42  43  44  45  46  47  48 0
 3-21G
 ****


