%nproc=1
%NoSave
%Mem=1900MB
#P OB98/GEN NMR

erre ene a

0 1
  C       43.988     183.234     -48.187
  O       45.327     183.171     -47.693
  P       46.180     181.833     -47.924
  C       46.259     181.065     -45.466
  O       45.798     180.774     -46.776
  C       46.754     179.791     -44.766
  O       45.628     178.953     -44.371
  C       47.655     178.936     -45.669
  O       48.655     178.264     -44.890
  C       46.698     177.887     -46.205
  O       47.392     176.733     -46.671
  C       45.816     177.659     -44.980
  N       42.625     173.775     -44.001
  C       43.800     174.135     -43.439
  N       44.582     175.194     -43.736
  C       44.032     175.930     -44.716
  C       42.838     175.692     -45.377
  C       42.119     174.547     -44.988
  N       40.937     174.164     -45.580
  N       42.600     176.661     -46.331
  C       43.660     177.443     -46.279
  N       44.535     177.064     -45.298
  O       47.643     182.027     -48.138
  O       45.490     181.194     -49.222
  H       47.972     176.429     -45.949
  H       46.186     180.845     -49.814
  H       44.164     173.482     -42.649
  H       43.847     178.283     -46.933
  H       46.306     177.014     -44.240
  H       46.121     178.303     -47.039
  H       48.151     179.490     -46.472
  H       47.282     180.070     -43.847
  H       45.455     181.520     -44.883
  H       40.554     173.269     -45.317
  H       40.629     174.647     -46.414
  H       47.052     181.819     -45.523
  P       50.129     178.910     -44.921
  C       50.929     177.113     -46.643
  O       50.765     178.477     -46.325
  O       50.941     178.603     -43.706
  O       49.801     180.465     -45.098
  H       49.182     180.673     -45.818
  H       51.254     177.029     -47.683
  H       49.988     176.569     -46.528
  H       51.695     176.666     -46.000
  H       43.565     184.188     -47.950
  H       43.403     182.462     -47.732
  H       43.993     183.099     -49.248

 3  4  5  6  7  8  9  10  11  12  22  25  29  30  31  32 0
 6-311+G(2d,p)
 ****
 33  36  37 0
 6-311+G(2d,p)
 ****
 1  2  13  14  15  16  17  18  19  20  21  23  24  26 0
 3-21G
 ****
 27  28  34  35  38  39  40  41  42  43  44  45  46  47  48 0
 3-21G
 ****


