%nproc=1
%NoSave
%Mem=1900MB
#P OB98/GEN NMR

erre ene a

0 1
  C      450.111     180.820    -312.120
  O      449.596     181.830    -311.275
  H      451.041     180.442    -311.686
  H      450.328     181.225    -313.112
  H      449.404     179.992    -312.201
  P      448.250     182.580    -311.713
  C      449.598     183.645    -313.642
  O      448.710     183.867    -312.554
  C      450.341     184.934    -313.988
  O      451.327     184.687    -315.008
  C      449.448     186.055    -314.513
  O      448.813     186.736    -313.441
  C      450.476     186.918    -315.223
  O      451.222     187.680    -314.254
  C      451.386     185.857    -315.870
  N      451.111     187.270    -320.741
  C      451.438     188.011    -319.619
  N      451.703     189.321    -319.822
  N      451.493     187.515    -318.409
  C      451.139     186.212    -318.348
  C      450.776     185.378    -319.385
  C      450.785     185.922    -320.724
  O      450.524     185.295    -321.752
  N      450.393     184.145    -318.927
  C      450.574     184.213    -317.621
  N      451.017     185.454    -317.216
  O      447.283     182.887    -310.612
  O      447.611     181.625    -312.828
  H      451.653     188.411    -314.733
  H      446.986     180.990    -312.432
  H      451.077     187.709    -321.645
  H      450.402     183.401    -316.926
  H      452.433     186.182    -315.913
  H      450.024     187.633    -315.918
  H      451.531     189.790    -320.697
  H      448.725     185.683    -315.246
  H      451.888     189.890    -319.004
  H      450.887     185.257    -313.091
  H      448.995     183.314    -314.493
  H      450.320     182.860    -313.395
  P      447.235     187.036    -313.456
  C      446.980     189.228    -314.807
  O      447.108     188.635    -313.525
  O      446.468     186.401    -312.353
  O      446.762     186.604    -314.916
  H      446.556     185.635    -314.985
  H      446.905     190.290    -314.703
  H      446.100     188.854    -315.287
  H      447.838     188.987    -315.399

 6  7  8  9  10  11  12  13  14  15  26  29  33  34 0
 6-311+G(2d,p)
 ****
 36  38  39  40  41 0
 6-311+G(2d,p)
 ****
 1  2  3  4  5  16  17  18  19  20  21  22  23  24  25 0
 3-21G
 ****
 27  28  30  31  32  35  37  42  43  44  45  46  47 0
 3-21G
 ****
 48  49 0
 3-21G
 ****


