%nproc=1
%NoSave
%Mem=1900MB
#P OB98/GEN NMR

erre ene a

0 1
  C       85.240     180.865     152.221
  O       84.981     179.713     151.438
  H       85.818     181.578     151.622
  H       85.825     180.611     153.110
  H       84.302     181.339     152.522
  P       84.281     178.457     152.147
  C       85.000     176.871     154.064
  O       85.419     177.787     153.057
  C       86.051     175.780     154.251
  O       86.132     174.957     153.069
  C       87.455     176.331     154.470
  O       87.603     176.827     155.789
  C       88.297     175.115     154.129
  O       88.347     174.190     155.223
  C       87.511     174.520     152.936
  N       88.060     174.911     151.643
  C       89.179     174.195     151.208
  O       89.642     173.282     151.898
  N       89.752     174.540     150.008
  C       89.251     175.507     149.303
  N       89.873     175.799     148.126
  C       88.065     176.279     149.716
  C       87.527     175.933     150.887
  O       83.558     177.493     151.255
  O       83.304     179.128     153.224
  H       88.822     173.405     154.884
  H       82.425     179.296     152.832
  H       87.679     177.069     149.091
  H       86.652     176.454     151.268
  H       87.499     173.424     152.989
  H       89.320     175.396     153.882
  H       87.673     177.113     153.735
  H       85.743     175.137     155.090
  H       90.689     175.248     147.885
  H       84.052     176.430     153.728
  H       89.520     176.464     147.454
  H       84.822     177.391     155.013
  P       88.148     178.314     156.041
  C       90.129     179.679     155.111
  O       89.578     178.379     155.313
  O       88.135     178.759     157.469
  O       87.219     179.208     155.089
  H       86.304     179.305     155.459
  H       91.076     179.593     154.621
  H       90.260     180.162     156.057
  H       89.465     180.258     154.504

 6  7  8  9  10  11  12  13  14  15  16  26  30  31  32  33  35 0
 6-311+G(2d,p)
 ****
 37  38 0
 6-311+G(2d,p)
 ****
 1  2  3  4  5  17  18  19  20  21  22  23  24  25 0
 3-21G
 ****
 27  28  29  34  36  39  40  41  42  43  44  45  46 0
 3-21G
 ****


