%nproc=1
%NoSave
%Mem=1900MB
#P OB98/GEN NMR

erre ene a

0 1
  C     -201.503     -10.905     -34.147
  O     -202.200     -11.556     -33.100
  P     -203.244     -12.713     -33.479
  C     -201.246     -14.373     -33.880
  O     -202.438     -13.782     -34.366
  C     -201.343     -15.900     -33.951
  O     -200.047     -16.470     -33.621
  C     -202.372     -16.517     -32.995
  O     -202.941     -17.654     -33.658
  C     -201.519     -16.957     -31.820
  O     -202.138     -17.968     -31.041
  C     -200.246     -17.407     -32.543
  N     -199.067     -17.449     -31.677
  C     -198.965     -18.498     -30.769
  O     -199.815     -19.377     -30.638
  N     -197.844     -18.493     -29.978
  C     -196.877     -17.530     -29.958
  O     -195.904     -17.567     -29.216
  C     -197.064     -16.421     -30.905
  C     -198.124     -16.438     -31.713
  O     -204.175     -11.957     -34.535
  O     -203.959     -13.286     -32.304
  H     -203.687     -11.328     -35.090
  H     -201.465     -18.343     -30.442
  H     -197.731     -19.266     -29.338
  H     -196.325     -15.629     -30.909
  H     -198.285     -15.632     -32.418
  H     -200.402     -18.392     -32.999
  H     -201.327     -16.096     -31.168
  H     -203.162     -15.813     -32.721
  H     -201.565     -16.184     -34.988
  H     -201.089     -14.074     -32.844
  H     -200.397     -14.009     -34.468
  P     -204.465     -18.046     -33.321
  C     -205.552     -16.236     -34.869
  O     -205.360     -16.742     -33.564
  O     -204.387     -18.130     -31.720
  O     -204.941     -19.318     -33.943
  H     -203.948     -17.361     -31.321
  H     -206.429     -15.584     -34.865
  H     -205.717     -17.040     -35.589
  H     -204.677     -15.649     -35.166
  H     -200.850     -10.165     -33.734
  H     -202.204     -10.435     -34.804
  H     -200.928     -11.623     -34.693

 3  4  5  6  7  8  9  10  11  12  13  24  28  29  30  31  32 0
 6-311+G(2d,p)
 ****
 33  34 0
 6-311+G(2d,p)
 ****
 1  2  14  15  16  17  18  19  20  21  22  23  25  26  27 0
 3-21G
 ****
 35  36  37  38  39  40  41  42  43  44  45 0
 3-21G
 ****


