%nproc=1
%NoSave
%Mem=1900MB
#P OB98/GEN NMR

erre ene a

0 1
  C       88.985    -550.057    -546.167
  O       87.808    -549.954    -545.375
  P       87.785    -548.832    -544.214
  C       85.247    -549.148    -543.757
  O       86.568    -549.195    -543.239
  C       84.210    -549.127    -542.636
  O       84.107    -550.469    -542.069
  C       84.541    -548.175    -541.466
  O       83.303    -547.655    -540.991
  C       85.184    -549.101    -540.462
  O       85.249    -548.582    -539.138
  C       84.300    -550.333    -540.644
  N       86.368    -552.473    -536.458
  C       85.784    -551.260    -536.671
  N       85.249    -550.767    -537.803
  C       85.358    -551.673    -538.801
  C       85.928    -552.917    -538.747
  C       86.454    -553.321    -537.503
  N       87.058    -554.552    -537.295
  N       85.852    -553.551    -539.978
  C       85.257    -552.673    -540.768
  N       84.917    -551.550    -540.097
  O       87.259    -547.518    -544.986
  O       89.101    -548.596    -543.540
  H       85.720    -547.729    -539.139
  H       87.721    -546.727    -544.683
  H       85.745    -550.594    -535.807
  H       85.067    -552.825    -541.821
  H       83.318    -550.217    -540.178
  H       86.208    -549.316    -540.756
  H       85.178    -547.336    -541.776
  H       83.233    -548.880    -543.072
  H       85.070    -550.031    -544.379
  H       87.579    -554.658    -536.448
  H       87.294    -555.087    -538.126
  H       85.145    -548.257    -544.407
  P       83.036    -546.078    -541.065
  C       80.580    -545.982    -541.848
  O       81.455    -545.919    -540.732
  O       83.044    -545.822    -542.652
  O       83.976    -545.210    -540.292
  H       82.462    -546.457    -543.116
  H       79.548    -545.978    -541.472
  H       80.746    -546.893    -542.421
  H       80.732    -545.099    -542.493
  H       88.861    -550.835    -546.891
  H       89.820    -550.285    -545.538
  H       89.160    -549.128    -546.669

 3  4  5  6  7  8  9  10  11  12  22  25  29  30  31  32 0
 6-311+G(2d,p)
 ****
 33  36  37 0
 6-311+G(2d,p)
 ****
 1  2  13  14  15  16  17  18  19  20  21  23  24  26 0
 3-21G
 ****
 27  28  34  35  38  39  40  41  42  43  44  45  46  47  48 0
 3-21G
 ****


