%nproc=1
%NoSave
%Mem=1900MB
#P OB98/GEN NMR

erre ene a

0 1
  C      -11.337     381.683     259.196
  O      -10.320     381.626     260.180
  H      -11.012     382.359     258.397
  H      -12.265     382.074     259.624
  H      -11.511     380.692     258.768
  P      -10.566     380.701     261.466
  C       -9.327     378.687     260.423
  O      -10.560     379.190     260.927
  C       -9.564     377.387     259.659
  O      -10.511     377.600     258.592
  C       -8.307     376.808     259.018
  O       -7.542     376.095     259.980
  C       -8.927     375.912     257.958
  O       -9.427     374.709     258.569
  C      -10.096     376.783     257.461
  N       -9.517     377.119     252.434
  C       -9.804     376.019     253.223
  N       -9.908     374.835     252.582
  N       -9.947     376.076     254.522
  C       -9.751     377.313     255.031
  C       -9.449     378.474     254.352
  C       -9.340     378.412     252.913
  O       -9.107     379.364     252.170
  N       -9.251     379.525     255.216
  C       -9.474     379.009     256.408
  N       -9.767     377.665     256.352
  O      -11.761     381.038     262.308
  O       -9.198     380.807     262.289
  H       -8.647     374.210     258.879
  H       -9.239     381.520     262.953
  H       -9.397     377.008     251.439
  H       -9.439     379.558     257.341
  H      -10.959     376.179     257.153
  H       -8.218     375.611     257.181
  H       -9.526     374.694     251.655
  H       -7.714     377.582     258.515
  H      -10.064     374.011     253.149
  H      -10.017     376.667     260.353
  H       -8.666     378.513     261.280
  H       -8.858     379.427     259.762
  P       -5.991     376.442     260.230
  C       -6.104     376.268     262.807
  O       -5.953     377.127     261.680
  O       -5.347     377.243     259.150
  O       -5.301     375.027     260.493
  H       -4.985     374.583     259.667
  H       -6.060     376.847     263.705
  H       -5.317     375.543     262.811
  H       -7.048     375.768     262.750

 6  7  8  9  10  11  12  13  14  15  26  29  33  34 0
 6-311+G(2d,p)
 ****
 36  38  39  40  41 0
 6-311+G(2d,p)
 ****
 1  2  3  4  5  16  17  18  19  20  21  22  23  24  25 0
 3-21G
 ****
 27  28  30  31  32  35  37  42  43  44  45  46  47 0
 3-21G
 ****
 48  49 0
 3-21G
 ****


