%nproc=1
%NoSave
%Mem=1900MB
#P OB98/GEN NMR

erre ene a

0 1
  C     -303.530     176.868    -365.970
  O     -304.813     176.306    -366.242
  P     -305.872     176.252    -365.037
  C     -306.115     174.930    -362.819
  O     -305.325     175.182    -363.964
  C     -305.775     173.576    -362.193
  O     -306.286     172.507    -363.053
  C     -304.271     173.316    -362.013
  O     -304.105     172.515    -360.838
  C     -303.910     172.480    -363.231
  O     -302.709     171.747    -363.048
  C     -305.171     171.643    -363.372
  N     -304.484     167.514    -366.317
  C     -304.250     167.723    -365.010
  N     -304.469     168.859    -364.299
  C     -304.974     169.823    -365.071
  C     -305.228     169.767    -366.430
  C     -304.972     168.545    -367.076
  N     -305.215     168.318    -368.406
  N     -305.714     170.977    -366.893
  C     -305.754     171.754    -365.822
  N     -305.328     171.094    -364.699
  O     -307.123     175.505    -365.704
  O     -306.277     177.578    -364.466
  H     -302.449     171.347    -363.908
  H     -307.874     176.127    -365.808
  H     -303.848     166.882    -364.463
  H     -306.068     172.797    -365.815
  H     -305.190     170.801    -362.659
  H     -303.778     173.142    -364.106
  H     -303.665     174.240    -361.932
  H     -306.296     173.488    -361.230
  H     -307.172     174.917    -363.117
  H     -305.146     167.367    -368.754
  H     -305.750     169.000    -368.923
  H     -305.981     175.732    -362.089
  P     -302.751     172.717    -359.993
  C     -301.549     171.090    -358.370
  O     -302.238     171.255    -359.588
  O     -303.273     173.340    -358.605
  O     -301.740     173.611    -360.656
  H     -302.566     173.882    -358.200
  H     -301.775     170.096    -357.965
  H     -301.846     171.858    -357.631
  H     -300.477     171.152    -358.542
  H     -302.933     176.839    -366.857
  H     -303.050     176.304    -365.198
  H     -303.645     177.883    -365.651

 3  4  5  6  7  8  9  10  11  12  22  25  29  30  31  32 0
 6-311+G(2d,p)
 ****
 33  36  37 0
 6-311+G(2d,p)
 ****
 1  2  13  14  15  16  17  18  19  20  21  23  24  26 0
 3-21G
 ****
 27  28  34  35  38  39  40  41  42  43  44  45  46  47  48 0
 3-21G
 ****


