%nproc=1
%NoSave
%Mem=1900MB
#P OB98/GEN NMR

erre ene a

0 1
  C      -82.890     -38.716    -221.360
  O      -83.963     -38.080    -220.659
  P      -85.443     -38.647    -220.903
  C      -86.621     -38.296    -218.607
  O      -86.009     -39.207    -219.513
  C      -85.867     -38.291    -217.275
  O      -84.523     -37.801    -217.438
  C      -86.498     -37.384    -216.234
  O      -87.631     -38.001    -215.656
  C      -85.346     -37.172    -215.257
  O      -85.335     -38.170    -214.225
  C      -84.098     -37.300    -216.159
  N      -83.375     -36.047    -216.297
  C      -82.155     -35.966    -215.617
  O      -81.762     -36.915    -214.934
  N      -81.427     -34.808    -215.710
  C      -81.889     -33.810    -216.398
  N      -81.126     -32.686    -216.447
  C      -83.184     -33.845    -217.106
  C      -83.869     -34.983    -217.014
  O      -85.191     -39.974    -221.761
  O      -86.346     -37.693    -221.616
  H      -86.165     -38.039    -213.723
  H      -85.927     -40.120    -222.381
  H      -83.531     -32.985    -217.660
  H      -84.831     -35.098    -217.503
  H      -83.405     -38.044    -215.747
  H      -85.421     -36.202    -214.757
  H      -86.777     -36.427    -216.691
  H      -85.824     -39.322    -216.897
  H      -80.245     -32.697    -215.948
  H      -87.664     -38.571    -218.444
  H      -81.391     -31.850    -216.947
  H      -86.626     -37.298    -219.061
  P      -89.056     -37.726    -216.327
  C      -90.199     -40.025    -216.369
  O      -89.426     -39.087    -217.093
  O      -88.670     -36.759    -217.548
  O      -90.120     -37.137    -215.465
  H      -89.476     -36.437    -217.988
  H      -90.553     -40.794    -217.059
  H      -91.064     -39.539    -215.910
  H      -89.583     -40.498    -215.600
  H      -81.966     -38.240    -221.105
  H      -83.055     -38.634    -222.414
  H      -82.847     -39.749    -221.085

 3  4  5  6  7  8  9  10  11  12  13  21  23  27  28  29  30  32 0
 6-311+G(2d,p)
 ****
 34  35 0
 6-311+G(2d,p)
 ****
 1  2  14  15  16  17  18  19  20  22  24  25  26 0
 3-21G
 ****
 31  33  36  37  38  39  40  41  42  43  44  45  46 0
 3-21G
 ****


