%nproc=1
%NoSave
%Mem=1900MB
#P OB98/GEN NMR

erre ene a

0 1
  C      -98.328    -174.890     439.238
  O      -99.630    -175.001     438.706
  H      -98.260    -173.963     439.814
  H      -97.594    -174.856     438.429
  H      -98.112    -175.735     439.898
  P      -99.941    -176.299     437.816
  C     -100.600    -174.845     435.769
  O     -101.009    -175.833     436.703
  C     -101.724    -173.831     435.541
  O     -102.834    -174.498     434.872
  C     -102.273    -173.211     436.836
  O     -102.583    -171.836     436.591
  C     -103.565    -173.973     437.061
  O     -104.489    -173.248     437.871
  C     -104.024    -174.185     435.622
  N     -108.061    -175.710     433.030
  C     -107.253    -174.606     432.861
  N     -107.568    -173.769     431.845
  N     -106.222    -174.337     433.624
  C     -106.010    -175.270     434.583
  C     -106.741    -176.403     434.863
  C     -107.892    -176.673     434.026
  O     -108.661    -177.625     434.139
  N     -106.223    -177.072     435.941
  C     -105.177    -176.351     436.311
  N     -105.008    -175.248     435.515
  O     -100.808    -177.225     438.796
  O      -98.746    -177.011     437.278
  H     -105.333    -173.746     437.883
  H     -100.669    -178.171     438.590
  H     -108.847    -175.861     432.423
  H     -104.522    -176.574     437.142
  H     -104.478    -173.291     435.190
  H     -103.358    -174.933     437.556
  H     -108.322    -173.927     431.201
  H     -101.589    -173.288     437.683
  H     -106.976    -172.959     431.695
  H     -101.364    -173.060     434.854
  H     -100.352    -175.333     434.819
  H      -99.714    -174.331     436.154
  P     -101.732    -170.730     437.387
  C     -103.769    -169.471     438.400
  O     -102.628    -169.407     437.551
  O     -100.620    -170.295     436.316
  O     -101.103    -171.241     438.644
  H      -99.755    -170.645     436.585
  H     -104.261    -168.521     438.408
  H     -103.461    -169.722     439.393
  H     -104.443    -170.218     438.036

 6  7  8  9  10  11  12  13  14  15  26  29  33  34 0
 6-311+G(2d,p)
 ****
 36  38  39  40  41 0
 6-311+G(2d,p)
 ****
 1  2  3  4  5  16  17  18  19  20  21  22  23  24  25 0
 3-21G
 ****
 27  28  30  31  32  35  37  42  43  44  45  46  47 0
 3-21G
 ****
 48  49 0
 3-21G
 ****


