%nproc=1
%NoSave
%Mem=1900MB
#P OB98/GEN NMR

erre ene a

0 1
  C      326.284     552.759    -468.417
  O      326.676     551.659    -469.227
  P      326.242     550.192    -468.734
  C      328.671     549.358    -469.040
  O      327.309     549.126    -469.315
  C      329.569     548.286    -469.695
  O      329.207     546.960    -469.212
  C      329.479     548.254    -471.217
  O      330.764     547.880    -471.725
  C      328.501     547.122    -471.484
  O      328.604     546.625    -472.813
  C      328.911     546.150    -470.374
  N      327.144     541.482    -471.471
  C      328.205     542.190    -471.939
  N      328.596     543.433    -471.615
  C      327.784     543.946    -470.662
  C      326.665     543.354    -470.097
  C      326.342     542.061    -470.538
  N      325.246     541.366    -470.087
  N      326.057     544.216    -469.205
  C      326.819     545.309    -469.222
  N      327.874     545.175    -470.071
  O      324.914     549.898    -469.572
  O      325.999     550.101    -467.264
  H      327.988     545.865    -472.898
  H      324.135     549.933    -468.989
  H      328.816     541.678    -472.676
  H      326.616     546.214    -468.663
  H      329.821     545.576    -470.635
  H      327.479     547.474    -471.322
  H      329.142     549.191    -471.675
  H      330.612     548.466    -469.390
  H      328.851     549.348    -467.953
  H      325.073     540.449    -470.492
  H      324.622     541.801    -469.440
  H      328.951     550.354    -469.379
  P      331.815     549.064    -471.984
  C      332.858     547.790    -473.990
  O      333.065     548.411    -472.725
  O      332.360     549.396    -470.513
  O      331.215     550.259    -472.649
  H      332.676     550.322    -470.476
  H      333.711     548.047    -474.640
  H      331.936     548.120    -474.471
  H      332.833     546.710    -473.855
  H      326.635     553.669    -468.857
  H      326.705     552.650    -467.439
  H      325.217     552.786    -468.345

 3  4  5  6  7  8  9  10  11  12  22  25  29  30  31  32 0
 6-311+G(2d,p)
 ****
 33  36  37 0
 6-311+G(2d,p)
 ****
 1  2  13  14  15  16  17  18  19  20  21  23  24  26 0
 3-21G
 ****
 27  28  34  35  38  39  40  41  42  43  44  45  46  47  48 0
 3-21G
 ****


