%nproc=1
%NoSave
%Mem=1900MB
#P OB98/GEN NMR

erre ene a

0 1
  C      400.688      40.741      94.384
  O      400.623      41.136      93.029
  H      401.721      40.472      94.622
  H      400.054      39.864      94.549
  H      400.376      41.554      95.043
  P      399.254      41.755      92.469
  C      398.487      39.568      91.328
  O      398.219      40.540      92.330
  C      397.226      38.754      91.011
  O      396.967      37.848      92.129
  C      395.953      39.604      90.816
  O      395.113      38.892      89.891
  C      395.376      39.582      92.220
  O      394.057      40.064      92.270
  C      395.614      38.104      92.568
  N      395.455      37.760      93.973
  C      394.186      37.892      94.532
  O      393.190      38.280      93.921
  N      394.084      37.565      95.858
  C      395.098      37.115      96.657
  O      394.935      36.811      97.834
  C      396.414      37.004      96.013
  C      396.530      37.320      94.722
  O      399.381      42.620      91.260
  O      398.670      42.572      93.718
  H      398.846      43.525      93.598
  H      393.489      39.499      91.701
  H      393.172      37.651      96.277
  H      397.241      36.661      96.621
  H      397.488      37.237      94.212
  H      394.958      37.470      91.963
  H      395.959      40.236      92.870
  H      396.161      40.600      90.423
  H      397.422      38.126      90.133
  H      399.275      38.903      91.695
  H      398.841      40.075      90.424
  P      395.056      39.213      88.319
  C      392.649      40.117      88.652
  O      393.936      40.339      88.081
  O      394.882      38.003      87.462
  O      396.434      39.964      87.993
  H      396.666      39.821      87.054
  H      392.007      40.940      88.416
  H      392.741      40.029      89.714
  H      392.233      39.215      88.254

 6  7  8  9  10  11  12  13  14  15  16  27  31  32  33  34  35 0
 6-311+G(2d,p)
 ****
 36  37 0
 6-311+G(2d,p)
 ****
 1  2  3  4  5  17  18  19  20  21  22  23  24  25 0
 3-21G
 ****
 26  28  29  30  38  39  40  41  42  43  44  45 0
 3-21G
 ****


