%nproc=1
%NoSave
%Mem=1900MB
#P OB98/GEN NMR

erre ene a

0 1
  C     -872.471     289.990     631.557
  O     -871.502     290.953     631.924
  H     -872.047     288.995     631.720
  H     -872.720     290.096     630.495
  H     -873.374     290.088     632.167
  P     -871.945     292.484     632.062
  C     -872.409     293.301     629.661
  O     -872.967     292.775     630.857
  C     -873.100     292.675     628.440
  O     -874.534     292.989     628.500
  C     -872.560     293.193     627.082
  O     -872.609     292.117     626.129
  C     -873.578     294.259     626.744
  O     -873.583     294.573     625.378
  C     -874.868     293.593     627.243
  N     -875.960     294.563     627.357
  C     -877.102     294.318     626.596
  O     -877.227     293.353     625.840
  N     -878.083     295.271     626.684
  C     -877.983     296.477     627.342
  O     -878.874     297.309     627.300
  C     -876.732     296.690     628.068
  C     -875.799     295.747     628.058
  O     -870.832     293.485     632.184
  O     -872.917     292.507     633.342
  H     -873.733     293.767     624.841
  H     -872.983     293.411     633.706
  H     -878.928     295.105     626.142
  H     -876.620     297.630     628.605
  H     -874.854     295.868     628.584
  H     -875.187     292.785     626.555
  H     -873.374     295.178     627.298
  H     -871.542     293.577     627.155
  H     -873.015     291.588     628.509
  H     -871.336     293.070     629.640
  H     -872.545     294.393     629.647
  P     -871.359     291.146     625.885
  C     -870.565     291.448     623.453
  O     -870.328     291.801     624.828
  O     -871.733     289.735     625.571
  O     -870.543     291.198     627.278
  H     -870.301     290.289     627.530
  H     -869.837     291.926     622.831
  H     -871.545     291.769     623.166
  H     -870.489     290.387     623.339

 6  7  8  9  10  11  12  13  14  15  16  26  31  32  33  34  35 0
 6-311+G(2d,p)
 ****
 36  37 0
 6-311+G(2d,p)
 ****
 1  2  3  4  5  17  18  19  20  21  22  23  24  25 0
 3-21G
 ****
 27  28  29  30  38  39  40  41  42  43  44  45 0
 3-21G
 ****


