%nproc=1
%NoSave
%Mem=1900MB
#P OB98/GEN NMR

erre ene a

0 1
  C      -66.349     193.281      41.211
  O      -65.924     193.354      42.587
  P      -66.301     192.146      43.582
  C      -68.714     192.802      44.332
  O      -67.887     191.910      43.597
  C      -69.946     192.075      44.910
  O      -70.692     192.981      45.783
  C      -70.927     191.556      43.852
  O      -71.508     190.347      44.377
  C      -71.972     192.659      43.797
  O      -73.204     192.242      43.239
  C      -72.048     193.029      45.287
  N      -72.648     194.341      45.545
  C      -74.037     194.449      45.468
  O      -74.786     193.531      45.140
  N      -74.555     195.683      45.765
  C      -73.841     196.805      46.080
  O      -74.366     197.891      46.305
  C      -72.382     196.638      46.117
  C      -71.861     195.439      45.850
  O      -66.038     192.809      45.015
  O      -65.478     190.908      43.423
  H      -73.776     193.029      43.156
  H      -65.536     192.186      45.579
  H      -75.558     195.774      45.735
  H      -71.780     197.502      46.366
  H      -70.787     195.289      45.886
  H      -72.617     192.260      45.828
  H      -71.591     193.488      43.186
  H      -70.451     191.362      42.882
  H      -69.588     191.254      45.544
  H      -69.051     193.610      43.673
  H      -68.124     193.246      45.146
  P      -71.045     188.945      43.753
  C      -72.916     188.547      41.969
  O      -71.571     188.890      42.241
  O      -72.032     187.945      44.530
  O      -69.595     188.619      43.968
  H      -72.949     188.266      44.543
  H      -73.599     189.018      42.684
  H      -73.032     187.461      42.009
  H      -73.173     188.895      40.963
  H      -66.020     194.156      40.689
  H      -67.417     193.221      41.170
  H      -65.925     192.412      40.752

 3  4  5  6  7  8  9  10  11  12  13  23  28  29  30  31  32 0
 6-311+G(2d,p)
 ****
 33  34 0
 6-311+G(2d,p)
 ****
 1  2  14  15  16  17  18  19  20  21  22  24  25  26 0
 3-21G
 ****
 27  35  36  37  38  39  40  41  42  43  44  45 0
 3-21G
 ****


