%nproc=1
%NoSave
%Mem=1900MB
#P OB98/GEN NMR

erre ene a

0 1
  C     -276.219    -630.076       3.171
  O     -277.531    -629.554       3.268
  H     -276.202    -631.060       3.649
  H     -275.523    -629.419       3.697
  H     -275.913    -630.182       2.130
  P     -277.917    -628.276       2.380
  C     -279.469    -629.641       0.826
  O     -278.315    -628.816       0.920
  C     -280.188    -629.423      -0.511
  O     -279.295    -629.798      -1.589
  C     -281.434    -630.307      -0.630
  O     -282.425    -629.724      -1.473
  C     -280.891    -631.561      -1.298
  O     -281.900    -632.318      -1.971
  C     -279.828    -630.979      -2.222
  N     -278.457    -635.361      -4.438
  C     -279.726    -634.866      -4.194
  N     -280.762    -635.647      -4.591
  N     -279.952    -633.729      -3.591
  C     -278.826    -633.100      -3.179
  C     -277.519    -633.500      -3.349
  C     -277.280    -634.744      -4.047
  O     -276.173    -635.238      -4.274
  N     -276.644    -632.593      -2.788
  C     -277.424    -631.655      -2.288
  N     -278.751    -631.905      -2.520
  O     -276.507    -627.561       2.112
  O     -278.905    -627.334       3.002
  H     -281.460    -633.081      -2.386
  H     -276.642    -626.622       1.893
  H     -278.338    -636.229      -4.933
  H     -277.066    -630.776      -1.756
  H     -280.270    -630.673      -3.178
  H     -280.470    -632.208      -0.519
  H     -280.628    -636.603      -4.881
  H     -281.881    -630.541       0.335
  H     -281.666    -635.452      -4.150
  H     -280.413    -628.352      -0.639
  H     -280.123    -629.371       1.662
  H     -279.196    -630.691       0.951
  P     -283.587    -628.847      -0.797
  C     -283.046    -626.419      -1.710
  O     -283.096    -627.336      -0.639
  O     -283.651    -629.388       0.700
  O     -284.919    -628.945      -1.488
  H     -284.511    -629.815       0.873
  H     -282.685    -625.476      -1.356
  H     -284.027    -626.295      -2.119
  H     -282.388    -626.791      -2.467

 6  7  8  9  10  11  12  13  14  15  26  29  33  34 0
 6-311+G(2d,p)
 ****
 36  38  39  40  41 0
 6-311+G(2d,p)
 ****
 1  2  3  4  5  16  17  18  19  20  21  22  23  24  25 0
 3-21G
 ****
 27  28  30  31  32  35  37  42  43  44  45  46  47 0
 3-21G
 ****
 48  49 0
 3-21G
 ****


