%nproc=1
%NoSave
%Mem=1900MB
#P OB98/GEN NMR

erre ene a

0 1
  C      -44.521    -208.799      14.928
  O      -45.335    -209.935      14.738
  H      -45.160    -207.911      14.948
  H      -43.820    -208.706      14.092
  H      -43.967    -208.854      15.868
  P      -44.743    -211.376      15.104
  C      -44.063    -211.948      12.679
  O      -43.617    -211.734      14.013
  C      -43.216    -212.998      11.955
  O      -41.817    -212.635      12.009
  C      -43.321    -214.377      12.607
  O      -44.436    -215.156      12.206
  C      -42.011    -215.029      12.168
  O      -42.147    -215.628      10.869
  C      -41.044    -213.842      12.116
  N      -36.641    -212.192      14.120
  C      -37.098    -212.083      12.821
  N      -36.253    -211.518      11.934
  N      -38.272    -212.513      12.433
  C      -38.971    -213.143      13.408
  C      -38.613    -213.325      14.726
  C      -37.334    -212.798      15.160
  O      -36.879    -212.873      16.298
  N      -39.582    -214.010      15.422
  C      -40.486    -214.307      14.508
  N      -40.171    -213.781      13.275
  O      -45.932    -212.383      14.715
  O      -44.332    -211.556      16.534
  H      -41.255    -215.785      10.509
  H      -45.867    -213.194      15.250
  H      -35.739    -211.821      14.369
  H      -41.390    -214.876      14.689
  H      -40.400    -213.891      11.228
  H      -41.707    -215.827      12.853
  H      -35.298    -211.279      12.160
  H      -43.311    -214.286      13.699
  H      -36.438    -211.659      10.938
  H      -43.504    -213.028      10.898
  H      -43.987    -210.988      12.164
  H      -45.118    -212.237      12.673
  P      -45.455    -215.722      13.304
  C      -44.069    -217.924      13.408
  O      -44.681    -216.869      14.116
  O      -46.516    -216.534      12.417
  O      -46.114    -214.683      14.146
  H      -47.297    -215.978      12.239
  H      -43.602    -218.594      14.099
  H      -43.331    -217.526      12.743
  H      -44.810    -218.452      12.844

 6  7  8  9  10  11  12  13  14  15  26  29  33  34 0
 6-311+G(2d,p)
 ****
 36  38  39  40  41 0
 6-311+G(2d,p)
 ****
 1  2  3  4  5  16  17  18  19  20  21  22  23  24  25 0
 3-21G
 ****
 27  28  30  31  32  35  37  42  43  44  45  46  47 0
 3-21G
 ****
 48  49 0
 3-21G
 ****


