%nproc=1
%NoSave
%Mem=1900MB
#P OB98/GEN NMR

erre ene a

0 1
  C     -234.733    -533.206       0.309
  O     -235.475    -533.254      -0.910
  P     -235.597    -531.926      -1.800
  C     -238.062    -531.345      -1.326
  O     -236.705    -530.958      -1.144
  C     -238.874    -530.293      -2.095
  O     -239.083    -529.104      -1.285
  C     -238.230    -529.838      -3.416
  O     -239.302    -529.601      -4.341
  C     -237.571    -528.534      -3.009
  O     -237.263    -527.716      -4.136
  C     -238.615    -527.975      -2.053
  N     -238.082    -526.926      -1.182
  C     -238.431    -525.604      -1.494
  O     -239.074    -525.367      -2.511
  N     -238.012    -524.610      -0.647
  C     -237.200    -524.882       0.325
  N     -236.824    -523.868       1.146
  C     -236.663    -526.244       0.563
  C     -237.170    -527.200      -0.202
  O     -235.739    -532.144      -3.265
  O     -234.227    -531.152      -1.476
  H     -238.101    -527.353      -4.504
  H     -233.924    -530.678      -2.276
  H     -235.924    -526.412       1.336
  H     -236.838    -528.228      -0.096
  H     -239.476    -527.571      -2.585
  H     -236.636    -528.742      -2.485
  H     -237.541    -530.573      -3.837
  H     -239.870    -530.728      -2.301
  H     -237.178    -522.940       0.955
  H     -238.518    -531.507      -0.341
  H     -236.225    -524.011       1.957
  H     -238.090    -532.316      -1.841
  P     -239.436    -530.554      -5.627
  C     -239.145    -528.796      -7.523
  O     -238.596    -529.899      -6.819
  O     -240.952    -530.253      -6.092
  O     -239.258    -532.015      -5.386
  H     -241.288    -531.021      -6.590
  H     -238.337    -528.303      -8.081
  H     -239.572    -528.054      -6.833
  H     -239.901    -529.140      -8.218
  H     -234.751    -534.169       0.776
  H     -235.171    -532.483       0.965
  H     -233.721    -532.930       0.100

 3  4  5  6  7  8  9  10  11  12  13  23  27  28  29  30  32 0
 6-311+G(2d,p)
 ****
 34  35 0
 6-311+G(2d,p)
 ****
 1  2  14  15  16  17  18  19  20  21  22  24  25  26 0
 3-21G
 ****
 31  33  36  37  38  39  40  41  42  43  44  45  46 0
 3-21G
 ****


