%nproc=1
%NoSave
%Mem=1900MB
#P OB98/GEN NMR

erre ene a

0 1
  C      -59.169     -12.423      94.938
  O      -58.080     -12.086      94.101
  H      -59.578     -13.383      94.611
  H      -59.957     -11.668      94.874
  H      -58.831     -12.523      95.973
  P      -57.398     -10.644      94.264
  C      -55.385     -11.743      95.435
  O      -55.818     -10.899      94.376
  C      -53.882     -11.582      95.678
  O      -53.177     -11.927      94.455
  C      -53.475     -10.160      96.080
  O      -52.423     -10.249      97.046
  C      -52.956      -9.585      94.778
  O      -52.061      -8.512      95.002
  C      -52.339     -10.810      94.099
  N      -52.259     -10.628      92.649
  C      -51.092     -10.029      92.160
  O      -50.190      -9.699      92.935
  N      -50.996      -9.759      90.820
  C      -51.999     -10.009      90.037
  N      -51.854      -9.679      88.727
  C      -53.261     -10.614      90.513
  C      -53.320     -10.897      91.817
  O      -57.967      -9.764      95.328
  O      -57.557      -9.986      92.811
  H      -51.359      -8.798      95.627
  H      -58.392      -9.482      92.763
  H      -54.070     -10.798      89.824
  H      -54.211     -11.333      92.256
  H      -51.331     -11.007      94.486
  H      -53.796      -9.202      94.184
  H      -54.305      -9.575      96.485
  H      -53.572     -12.311      96.439
  H      -50.981      -9.244      88.451
  H      -55.601     -12.779      95.151
  H      -52.579      -9.788      88.032
  H      -55.939     -11.507      96.349
  P      -52.389      -9.264      98.313
  C      -53.609     -10.852      99.910
  O      -52.397     -10.146      99.658
  O      -53.407      -8.171      98.282
  O      -50.907      -8.653      98.285
  H      -50.921      -7.753      98.666
  H      -53.516     -11.406     100.821
  H      -53.804     -11.525      99.102
  H      -54.416     -10.155      99.997

 6  7  8  9  10  11  12  13  14  15  16  26  30  31  32  33  35 0
 6-311+G(2d,p)
 ****
 37  38 0
 6-311+G(2d,p)
 ****
 1  2  3  4  5  17  18  19  20  21  22  23  24  25 0
 3-21G
 ****
 27  28  29  34  36  39  40  41  42  43  44  45  46 0
 3-21G
 ****


