%nproc=1
%NoSave
%Mem=1900MB
#P OB98/GEN NMR

erre ene a

0 1
  C     -899.091    -647.376     583.871
  O     -897.981    -646.747     583.200
  P     -897.761    -645.201     583.520
  C     -895.421    -645.167     584.646
  O     -896.841    -645.055     584.831
  C     -894.681    -644.554     585.842
  O     -894.941    -643.154     585.958
  C     -894.981    -645.243     587.179
  O     -893.791    -645.210     587.979
  C     -896.011    -644.272     587.804
  O     -896.071    -644.450     589.217
  C     -895.421    -642.923     587.313
  N     -896.411    -641.854     587.367
  C     -896.311    -640.917     588.414
  O     -895.461    -641.066     589.265
  N     -897.201    -639.881     588.438
  C     -898.121    -639.798     587.544
  N     -898.981    -638.725     587.659
  C     -898.321    -640.773     586.479
  C     -897.411    -641.767     586.440
  O     -899.201    -644.679     584.005
  O     -897.281    -644.407     582.324
  H     -896.401    -645.355     589.403
  H     -899.441    -643.886     583.543
  H     -899.131    -640.670     585.783
  H     -897.471    -642.531     585.678
  H     -894.571    -642.620     587.948
  H     -897.001    -644.449     587.369
  H     -895.371    -646.262     587.086
  H     -893.601    -644.663     585.641
  H     -898.811    -638.065     588.416
  H     -895.121    -644.657     583.736
  H     -899.761    -638.570     587.026
  H     -895.181    -646.224     584.510
  P     -892.871    -646.518     587.955
  C     -891.281    -645.761     586.073
  O     -892.341    -646.607     586.441
  O     -893.941    -647.689     588.028
  O     -891.821    -646.655     589.026
  H     -893.471    -648.534     588.076
  H     -890.981    -646.015     585.036
  H     -890.471    -645.882     586.757
  H     -891.611    -644.712     586.071
  H     -899.144    -648.406     583.584
  H     -900.000    -646.882     583.597
  H     -898.953    -647.307     584.930

 3  4  5  6  7  8  9  10  11  12  13  21  23  27  28  29  30  32 0
 6-311+G(2d,p)
 ****
 34  35 0
 6-311+G(2d,p)
 ****
 1  2  14  15  16  17  18  19  20  22  24  25  26 0
 3-21G
 ****
 31  33  36  37  38  39  40  41  42  43  44  45  46 0
 3-21G
 ****


