%nproc=1
%NoSave
%Mem=1900MB
#P OB98/GEN NMR

erre ene a

0 1
  C     -315.376      40.683     -13.288
  O     -316.752      40.399     -13.449
  H     -314.821      40.199     -14.096
  H     -315.013      40.293     -12.333
  H     -315.200      41.761     -13.339
  P     -317.780      40.998     -12.379
  C     -319.352      41.856     -14.237
  O     -319.212      41.014     -13.102
  C     -320.447      41.321     -15.153
  O     -320.036      40.079     -15.758
  C     -321.768      41.037     -14.438
  O     -322.507      42.236     -14.267
  C     -322.410      40.071     -15.422
  O     -322.931      40.801     -16.548
  C     -321.206      39.218     -15.848
  N     -322.888      34.599     -14.609
  C     -323.434      35.545     -15.456
  N     -324.622      35.230     -16.018
  N     -322.879      36.700     -15.711
  C     -321.732      36.904     -15.022
  C     -321.103      36.054     -14.144
  C     -321.698      34.754     -13.913
  O     -321.239      33.881     -13.185
  N     -319.990      36.635     -13.588
  C     -319.928      37.822     -14.160
  N     -320.974      38.041     -15.027
  O     -317.403      42.310     -11.758
  O     -317.929      39.837     -11.288
  H     -323.131      40.142     -17.237
  H     -317.296      39.957     -10.556
  H     -323.375      33.734     -14.441
  H     -319.152      38.555     -13.982
  H     -321.283      38.879     -16.888
  H     -323.235      39.506     -14.990
  H     -325.215      34.499     -15.643
  H     -321.613      40.510     -13.488
  H     -325.061      35.927     -16.603
  H     -320.589      42.044     -15.966
  H     -318.390      41.869     -14.761
  H     -319.598      42.874     -13.928
  P     -322.931      42.746     -12.805
  C     -323.148      45.195     -13.603
  O     -323.814      44.060     -13.066
  O     -321.799      42.935     -11.854
  O     -324.021      41.690     -12.311
  H     -323.633      40.911     -11.840
  H     -323.848      45.994     -13.726
  H     -322.723      44.943     -14.552
  H     -322.371      45.502     -12.935

 6  7  8  9  10  11  12  13  14  15  26  29  33  34 0
 6-311+G(2d,p)
 ****
 36  38  39  40  41 0
 6-311+G(2d,p)
 ****
 1  2  3  4  5  16  17  18  19  20  21  22  23  24  25 0
 3-21G
 ****
 27  28  30  31  32  35  37  42  43  44  45  46  47 0
 3-21G
 ****
 48  49 0
 3-21G
 ****


