%nproc=1
%NoSave
%Mem=1900MB
#P OB98/GEN NMR

erre ene a

0 1
  C     -925.250    -897.310    -896.743
  O     -926.447    -897.280    -897.541
  P     -927.686    -898.180    -897.049
  C     -929.279    -896.170    -896.599
  O     -929.056    -897.370    -897.335
  C     -930.160    -895.220    -897.405
  O     -929.397    -894.500    -898.398
  C     -931.286    -895.920    -898.201
  O     -932.422    -896.200    -897.393
  C     -931.622    -894.860    -899.235
  O     -932.474    -893.850    -898.639
  C     -930.234    -894.250    -899.554
  N     -929.351    -893.620    -904.542
  C     -930.055    -892.880    -903.664
  N     -930.260    -893.120    -902.336
  C     -929.646    -894.250    -901.976
  C     -928.887    -895.110    -902.784
  C     -928.763    -894.750    -904.133
  N     -928.013    -895.500    -905.019
  N     -928.404    -896.160    -902.027
  C     -928.844    -895.960    -900.819
  N     -929.598    -894.820    -900.731
  O     -927.569    -898.150    -895.453
  O     -927.664    -899.580    -897.570
  H     -933.244    -894.310    -898.240
  H     -927.849    -898.990    -895.083
  H     -930.530    -891.990    -904.057
  H     -928.660    -896.580    -899.948
  H     -930.297    -893.160    -899.694
  H     -932.168    -895.260    -900.098
  H     -930.903    -896.820    -898.693
  H     -930.616    -894.500    -896.714
  H     -928.359    -895.690    -896.349
  H     -927.928    -895.170    -905.975
  H     -927.539    -896.330    -904.706
  H     -929.783    -896.460    -895.647
  P     -933.624    -897.040    -898.046
  C     -933.287    -899.290    -896.851
  O     -934.048    -898.130    -896.961
  O     -932.902    -897.880    -899.178
  O     -934.717    -896.190    -898.605
  H     -933.497    -898.050    -899.951
  H     -933.526    -899.800    -895.872
  H     -932.204    -899.090    -896.853
  H     -933.537    -900.000    -897.666
  H     -924.513    -896.671    -897.182
  H     -924.875    -898.311    -896.700
  H     -925.473    -896.970    -895.753

 3  4  5  6  7  8  9  10  11  12  22  25  29  30  31  32 0
 6-311+G(2d,p)
 ****
 33  36  37 0
 6-311+G(2d,p)
 ****
 1  2  13  14  15  16  17  18  19  20  21  23  24  26 0
 3-21G
 ****
 27  28  34  35  38  39  40  41  42  43  44  45  46  47  48 0
 3-21G
 ****


