%nproc=1
%NoSave
%Mem=1900MB
#P OB98/GEN NMR

erre ene a

0 1
  C     -226.886     542.868    -205.297
  O     -225.735     542.278    -204.711
  P     -225.930     540.934    -203.861
  C     -227.194     540.287    -201.696
  O     -226.930     541.301    -202.656
  C     -228.211     540.762    -200.665
  O     -227.682     541.950    -199.999
  C     -229.581     541.141    -201.253
  O     -230.619     540.620    -200.414
  C     -229.612     542.657    -201.140
  O     -230.942     543.159    -201.078
  C     -228.795     542.854    -199.867
  N     -230.229     547.617    -198.941
  C     -230.949     546.441    -198.844
  N     -232.256     546.560    -198.511
  N     -230.440     545.257    -199.066
  C     -229.118     545.279    -199.357
  C     -228.296     546.378    -199.475
  C     -228.881     547.688    -199.287
  O     -228.322     548.770    -199.449
  N     -227.006     546.007    -199.769
  C     -227.053     544.688    -199.839
  N     -228.324     544.207    -199.644
  O     -224.516     540.758    -203.135
  O     -226.289     539.725    -204.655
  H     -231.439     542.569    -200.481
  H     -224.142     539.877    -203.349
  H     -230.671     548.502    -198.779
  H     -226.206     544.047    -200.058
  H     -229.380     542.558    -198.988
  H     -229.112     543.091    -202.018
  H     -232.701     547.437    -198.294
  H     -229.739     540.796    -202.285
  H     -232.793     545.715    -198.415
  H     -228.319     539.990    -199.896
  H     -226.258     540.027    -201.187
  H     -227.574     539.398    -202.212
  P     -232.067     540.476    -201.089
  C     -234.313     541.415    -200.154
  O     -232.962     541.662    -200.475
  O     -232.665     539.155    -200.407
  O     -232.035     540.383    -202.580
  H     -233.341     538.746    -200.987
  H     -234.566     540.351    -200.214
  H     -234.949     541.966    -200.844
  H     -234.506     541.763    -199.131
  H     -226.602     543.752    -205.829
  H     -227.586     543.123    -204.529
  H     -227.337     542.173    -205.974

 3  4  5  6  7  8  9  10  11  12  23  26  30  31  33  0
 6-311+G(2d,p)
 ****
 35  36  37  38 0
 6-311+G(2d,p)
 ****
 1  2  13  14  15  16  17  18  19  20  21  22  24  25  27  28  29 0
 3-21G
 ****
 32  34  39  40  41  42  43  44  45  46  47  48  49 0
 3-21G
 ****


