%nproc=1
%NoSave
%Mem=1900MB
#P OB98/GEN NMR

erre ene a

0 1
  C     -297.023     144.835      44.510
  O     -297.274     143.529      43.988
  P     -298.221     142.528      44.803
  C     -298.866     140.842      42.958
  O     -298.120     141.064      44.149
  C     -298.030     141.192      41.713
  O     -296.778     140.452      41.742
  C     -298.753     140.850      40.401
  O     -298.774     141.940      39.477
  C     -298.048     139.590      39.927
  O     -298.158     139.387      38.529
  C     -296.629     139.764      40.488
  N     -295.941     138.475      40.641
  C     -295.569     137.829      39.472
  O     -295.860     138.241      38.349
  N     -294.901     136.641      39.631
  C     -294.647     136.021      40.817
  O     -294.086     134.936      40.905
  C     -295.119     136.727      42.019
  C     -295.734     137.904      41.877
  O     -299.611     143.008      45.062
  O     -297.426     142.335      46.188
  H     -297.760     140.157      38.068
  H     -298.086     142.299      46.908
  H     -294.609     136.166      38.790
  H     -294.952     136.255      42.978
  H     -296.100     138.438      42.743
  H     -296.018     140.381      39.825
  H     -298.516     138.728      40.416
  H     -299.811     140.628      40.571
  H     -297.806     142.260      41.761
  H     -299.759     141.463      42.970
  H     -299.211     139.803      42.938
  P     -299.964     143.002      39.358
  C     -298.899     145.300      38.785
  O     -299.526     144.125      38.305
  O     -300.495     143.525      40.650
  O     -301.099     142.188      38.583
  H     -301.973     142.403      38.966
  H     -299.010     146.085      38.032
  H     -297.839     145.106      38.947
  H     -299.358     145.638      39.719
  H     -296.376     145.367      43.844
  H     -296.558     144.752      45.470
  H     -297.948     145.364      44.607

 3  4  5  6  7  8  9  10  11  12  13  23  28  29  30  31  32 0
 6-311+G(2d,p)
 ****
 33  34 0
 6-311+G(2d,p)
 ****
 1  2  14  15  16  17  18  19  20  21  22  24  25  26  27 0
 3-21G
 ****
 35  36  37  38  39  40  41  42  43  44  45 0
 3-21G
 ****


