%nproc=1
%NoSave
%Mem=1900MB
#P OB98/GEN NMR

erre ene a

0 1
  C     -135.835     247.249     501.614
  O     -135.522     247.038     502.976
  H     -136.797     246.772     501.401
  H     -135.071     246.798     500.973
  H     -135.919     248.318     501.403
  P     -134.121     247.580     503.538
  C     -133.540     245.546     505.021
  O     -133.918     246.919     504.987
  C     -133.987     244.906     506.342
  O     -135.409     244.630     506.235
  C     -133.260     243.583     506.629
  O     -132.655     243.550     507.923
  C     -134.313     242.528     506.316
  O     -134.148     241.306     507.008
  C     -135.631     243.254     506.603
  N     -136.779     242.707     505.884
  C     -137.364     241.553     506.392
  O     -137.001     240.971     507.415
  N     -138.424     241.064     505.677
  C     -138.944     241.595     504.536
  O     -139.901     241.119     503.941
  C     -138.266     242.804     504.032
  C     -137.234     243.299     504.720
  O     -133.936     249.059     503.495
  O     -133.032     246.823     502.645
  H     -134.952     240.768     506.851
  H     -132.681     247.435     501.967
  H     -138.863     240.235     506.047
  H     -138.646     243.252     503.123
  H     -136.713     244.188     504.374
  H     -135.859     243.220     507.670
  H     -134.260     242.298     505.241
  H     -132.411     243.450     505.952
  H     -133.849     245.630     507.153
  H     -132.451     245.494     504.924
  H     -133.998     245.019     504.175
  P     -131.158     243.077     508.211
  C     -131.940     241.077     509.720
  O     -131.151     242.248     509.584
  O     -130.105     244.118     508.046
  O     -130.905     241.945     507.092
  H     -129.953     241.991     506.852
  H     -131.804     240.667     510.699
  H     -131.640     240.358     508.987
  H     -132.971     241.323     509.577

 6  7  8  9  10  11  12  13  14  15  16  26  31  32  33  34  35 0
 6-311+G(2d,p)
 ****
 36  37 0
 6-311+G(2d,p)
 ****
 1  2  3  4  5  17  18  19  20  21  22  23  24  25 0
 3-21G
 ****
 27  28  29  30  38  39  40  41  42  43  44  45 0
 3-21G
 ****


