%nproc=1
%NoSave
%Mem=1900MB
#P OB98/GEN NMR

erre ene a

0 1
  C     -255.663     632.733      59.518
  O     -256.599     633.432      58.718
  H     -254.929     633.451      59.894
  H     -255.145     631.986      58.912
  H     -256.161     632.255      60.361
  P     -257.763     632.550      58.047
  C     -257.713     630.689      56.232
  O     -257.098     631.857      56.748
  C     -257.715     630.720      54.706
  O     -256.402     631.007      54.213
  C     -258.154     629.411      54.047
  O     -259.575     629.320      54.001
  C     -257.539     629.547      52.673
  O     -258.342     630.383      51.804
  C     -256.188     630.226      52.991
  N     -253.708     626.320      50.976
  C     -254.734     627.077      50.459
  N     -255.216     626.714      49.253
  N     -255.264     628.095      51.085
  C     -254.706     628.337      52.296
  C     -253.662     627.655      52.903
  C     -253.076     626.545      52.196
  O     -252.113     625.878      52.561
  N     -253.375     628.208      54.132
  C     -254.255     629.174      54.281
  N     -255.093     629.287      53.204
  O     -258.740     633.650      57.402
  O     -258.488     631.633      58.963
  H     -257.911     630.441      50.943
  H     -259.651     633.309      57.414
  H     -253.336     625.554      50.431
  H     -254.329     629.822      55.142
  H     -255.873     630.912      52.209
  H     -257.439     628.575      52.176
  H     -255.095     625.772      48.897
  H     -257.729     628.548      54.581
  H     -255.994     627.246      48.882
  H     -258.379     631.536      54.400
  H     -258.743     630.635      56.604
  H     -257.172     629.804      56.597
  P     -260.225     627.844      53.852
  C     -260.230     626.023      52.010
  O     -259.802     627.317      52.412
  O     -261.793     628.150      53.695
  O     -259.941     626.922      54.996
  H     -262.300     627.338      53.870
  H     -259.867     625.817      51.025
  H     -261.299     625.985      52.011
  H     -259.846     625.293      52.691

 6  7  8  9  10  11  12  13  14  15  26  29  33  34 0
 6-311+G(2d,p)
 ****
 36  38  39  40  41 0
 6-311+G(2d,p)
 ****
 1  2  3  4  5  16  17  18  19  20  21  22  23  24  25 0
 3-21G
 ****
 27  28  30  31  32  35  37  42  43  44  45  46  47 0
 3-21G
 ****
 48  49 0
 3-21G
 ****


