%nproc=1
%NoSave
%Mem=1900MB
#P OB98/GEN NMR

erre ene a

0 1
  C      473.703     507.558     370.059
  O      474.795     506.634     369.991
  P      475.407     506.050     371.352
  C      477.816     506.196     370.442
  O      476.816     505.354     371.009
  C      479.021     505.372     369.983
  O      479.469     504.478     371.018
  C      478.718     504.481     368.789
  O      478.636     505.252     367.596
  C      479.871     503.494     368.844
  O      481.057     504.052     368.238
  C      480.086     503.341     370.361
  N      479.560     502.082     370.884
  C      480.498     501.251     371.527
  O      481.684     501.582     371.585
  N      480.061     500.064     372.072
  C      478.807     499.743     371.980
  N      478.435     498.555     372.533
  C      477.799     500.585     371.305
  C      478.244     501.731     370.783
  O      474.471     505.227     372.180
  O      475.859     507.377     372.139
  H      480.883     504.079     367.270
  H      475.795     507.208     373.095
  H      476.765     500.267     371.262
  H      477.562     502.399     370.269
  H      481.159     503.387     370.609
  H      479.651     502.572     368.312
  H      477.771     503.947     368.952
  H      479.833     506.062     369.741
  H      479.147     497.995     372.987
  H      478.132     506.931     371.176
  H      477.473     498.239     372.564
  H      477.372     506.750     369.604
  P      477.329     505.075     366.682
  C      478.589     505.636     364.497
  O      477.526     505.967     365.359
  O      476.210     505.893     367.508
  O      476.900     503.656     366.458
  H      475.347     505.459     367.396
  H      478.406     506.098     363.526
  H      478.682     504.558     364.356
  H      479.521     506.033     364.898
  H      473.418     507.847     369.069
  H      474.003     508.424     370.611
  H      472.872     507.093     370.548

 3  4  5  6  7  8  9  10  11  12  13  23  27  28  29  30  32 0
 6-311+G(2d,p)
 ****
 34  35 0
 6-311+G(2d,p)
 ****
 1  2  14  15  16  17  18  19  20  21  22  24  25  26 0
 3-21G
 ****
 31  33  36  37  38  39  40  41  42  43  44  45  46 0
 3-21G
 ****


