%nproc=1
%NoSave
%Mem=1900MB
#P OB98/GEN NMR

erre ene a

0 1
  C     -210.954     -24.516     180.762
  O     -211.072     -23.487     179.794
  P     -211.588     -23.835     178.322
  C     -209.205     -24.075     177.379
  O     -210.457     -24.720     177.605
  C     -208.219     -25.040     176.725
  O     -207.779     -26.032     177.675
  C     -208.805     -25.823     175.554
  O     -208.890     -25.017     174.397
  C     -207.815     -26.985     175.451
  O     -206.641     -26.584     174.719
  C     -207.472     -27.237     176.930
  N     -207.138     -31.173     180.164
  C     -206.207     -30.311     179.688
  N     -206.369     -29.307     178.794
  C     -207.644     -29.258     178.370
  C     -208.697     -30.087     178.736
  C     -208.412     -31.077     179.700
  N     -209.366     -31.919     180.241
  N     -209.850     -29.739     178.062
  C     -209.493     -28.722     177.292
  N     -208.192     -28.361     177.494
  O     -212.079     -22.670     177.525
  O     -212.768     -24.890     178.566
  H     -206.305     -25.769     175.135
  H     -213.604     -24.532     178.214
  H     -205.204     -30.443     180.083
  H     -210.146     -28.212     176.592
  H     -206.398     -27.425     177.069
  H     -208.242     -27.854     174.939
  H     -209.792     -26.220     175.825
  H     -207.339     -24.467     176.401
  H     -208.806     -23.736     178.344
  H     -209.080     -32.480     181.020
  H     -210.339     -31.657     180.137
  H     -209.355     -23.197     176.735
  P     -210.066     -25.269     173.331
  C     -208.417     -26.422     171.737
  O     -209.634     -26.540     172.452
  O     -210.500     -24.073     172.547
  O     -211.265     -25.850     174.227
  H     -212.117     -25.572     173.842
  H     -208.577     -25.816     170.837
  H     -208.084     -27.422     171.439
  H     -207.638     -25.963     172.354
  H     -210.597     -24.101     181.682
  H     -210.265     -25.256     180.413
  H     -211.911     -24.967     180.922

 3  4  5  6  7  8  9  10  11  12  22  25  29  30  31  32 0
 6-311+G(2d,p)
 ****
 33  36  37 0
 6-311+G(2d,p)
 ****
 1  2  13  14  15  16  17  18  19  20  21  23  24  26 0
 3-21G
 ****
 27  28  34  35  38  39  40  41  42  43  44  45  46  47  48 0
 3-21G
 ****


