%nproc=1
%NoSave
%Mem=1900MB
#P OB98/GEN NMR

erre ene a

0 1
  C      157.079    -573.568    -233.520
  O      157.331    -574.962    -233.391
  P      157.043    -575.635    -231.962
  C      155.259    -577.237    -232.989
  O      155.553    -576.226    -232.018
  C      155.079    -578.584    -232.291
  O      154.191    -578.469    -231.157
  C      154.467    -579.658    -233.176
  O      155.421    -580.273    -234.036
  C      153.974    -580.658    -232.132
  O      155.078    -581.471    -231.667
  C      153.492    -579.726    -231.008
  N      148.950    -581.976    -231.125
  C      150.208    -582.521    -230.892
  N      150.260    -583.869    -230.726
  N      151.309    -581.820    -230.827
  C      151.101    -580.483    -231.017
  C      149.904    -579.837    -231.253
  C      148.698    -580.628    -231.333
  O      147.574    -580.213    -231.586
  N      150.097    -578.479    -231.374
  C      151.383    -578.318    -231.226
  N      152.058    -579.510    -231.051
  O      156.896    -574.384    -230.972
  O      158.094    -576.589    -231.495
  H      155.495    -581.829    -232.474
  H      156.996    -574.665    -230.048
  H      148.145    -582.571    -231.163
  H      151.895    -577.364    -231.255
  H      153.748    -580.118    -230.012
  H      153.210    -581.337    -232.517
  H      149.467    -584.467    -230.835
  H      153.598    -579.272    -233.734
  H      151.174    -584.290    -230.630
  H      156.054    -578.914    -231.917
  H      156.087    -577.300    -233.700
  H      154.355    -576.958    -233.536
  P      154.855    -580.986    -235.371
  C      156.230    -579.277    -236.742
  O      154.970    -579.884    -236.532
  O      153.267    -581.060    -235.078
  O      155.450    -582.332    -235.653
  H      152.885    -581.808    -235.577
  H      156.222    -578.769    -237.724
  H      157.037    -580.024    -236.760
  H      156.436    -578.537    -235.965
  H      157.312    -573.254    -234.516
  H      157.688    -573.030    -232.825
  H      156.047    -573.372    -233.316

 3  4  5  6  7  8  9  10  11  12  23  26  30  31 0
 6-311+G(2d,p)
 ****
 33  35  36  37  38 0
 6-311+G(2d,p)
 ****
 1  2  13  14  15  16  17  18  19  20  21  22  24  25 0
 3-21G
 ****
 27  28  29  32  34  39  40  41  42  43  44  45  46  47  48  49 0
 3-21G
 ****


