%nproc=1
%NoSave
%Mem=1900MB
#P OB98/GEN NMR

erre ene a

0 1
  C     -221.843     106.639     -44.056
  O     -221.651     105.837     -42.907
  H     -221.216     107.531     -43.967
  H     -222.887     106.953     -44.135
  H     -221.550     106.094     -44.957
  P     -222.470     104.465     -42.797
  C     -222.455     104.889     -40.251
  O     -223.227     104.516     -41.384
  C     -223.220     105.902     -39.407
  O     -223.332     107.156     -40.107
  C     -224.644     105.470     -39.059
  O     -224.634     104.574     -37.959
  C     -225.266     106.817     -38.730
  O     -224.844     107.239     -37.418
  C     -224.640     107.718     -39.807
  N     -227.112     110.809     -42.973
  C     -226.508     111.080     -41.760
  N     -226.617     112.348     -41.308
  N     -225.874     110.186     -41.048
  C     -225.909     108.948     -41.592
  C     -226.489     108.553     -42.776
  C     -227.140     109.563     -43.583
  O     -227.673     109.369     -44.671
  N     -226.376     107.200     -42.965
  C     -225.694     106.783     -41.916
  N     -225.399     107.804     -41.044
  O     -221.688     103.205     -43.017
  O     -223.654     104.632     -43.857
  H     -223.870     107.281     -37.440
  H     -223.405     104.264     -44.725
  H     -227.602     111.538     -43.465
  H     -225.387     105.759     -41.741
  H     -224.484     108.743     -39.452
  H     -226.355     106.797     -38.731
  H     -227.320     112.984     -41.665
  H     -225.163     105.050     -39.926
  H     -226.226     112.555     -40.398
  H     -222.636     106.093     -38.498
  H     -221.518     105.323     -40.617
  H     -222.220     104.008     -39.644
  P     -225.738     103.414     -37.827
  C     -225.644     104.001     -35.313
  O     -226.468     103.695     -36.429
  O     -225.212     102.028     -37.989
  O     -226.861     103.807     -38.891
  H     -226.695     103.440     -39.794
  H     -226.257     104.165     -34.451
  H     -225.077     104.884     -35.520
  H     -224.978     103.185     -35.127

 6  7  8  9  10  11  12  13  14  15  26  29  33  34 0
 6-311+G(2d,p)
 ****
 36  38  39  40  41 0
 6-311+G(2d,p)
 ****
 1  2  3  4  5  16  17  18  19  20  21  22  23  24  25 0
 3-21G
 ****
 27  28  30  31  32  35  37  42  43  44  45  46  47 0
 3-21G
 ****
 48  49 0
 3-21G
 ****


