%nproc=1
%NoSave
%Mem=1900MB
#P OB98/GEN NMR

erre ene a

0 1
  C      344.803      52.073     701.374
  O      344.024      53.274     701.488
  P      343.974      54.134     702.847
  C      345.792      55.820     702.120
  O      345.411      54.817     703.066
  C      346.484      57.002     702.790
  O      347.796      56.618     703.279
  C      346.722      58.202     701.882
  O      345.527      58.953     701.733
  C      347.843      58.925     702.612
  O      347.319      59.711     703.691
  C      348.676      57.753     703.153
  N      353.360      59.203     701.693
  C      352.489      59.727     702.589
  N      351.255      59.287     702.919
  C      350.955      58.163     702.233
  C      351.743      57.514     701.296
  C      353.001      58.081     701.028
  N      353.880      57.554     700.106
  N      351.091      56.409     700.786
  C      349.937      56.384     701.430
  N      349.811      57.414     702.313
  O      343.466      53.382     704.033
  O      343.019      55.374     702.501
  H      346.946      59.099     704.349
  H      342.585      55.689     703.321
  H      352.827      60.615     703.105
  H      349.168      55.635     701.288
  H      349.061      57.961     704.159
  H      348.409      59.602     701.960
  H      347.079      57.865     700.899
  H      345.889      57.296     703.665
  H      344.879      56.168     701.607
  H      354.754      58.037     699.945
  H      353.605      56.746     699.568
  H      346.458      55.358     701.379
  P      344.915      59.205     700.271
  C      342.805      57.768     700.550
  O      344.049      57.909     699.889
  O      345.882      59.660     699.235
  O      343.778      60.311     700.526
  H      343.678      60.856     699.725
  H      342.973      57.357     701.551
  H      342.184      57.071     699.982
  H      342.286      58.723     700.631
  H      344.691      51.667     700.390
  H      344.465      51.359     702.095
  H      345.834      52.298     701.551

 3  4  5  6  7  8  9  10  11  12  22  25  29  30  31  32 0
 6-311+G(2d,p)
 ****
 33  36  37 0
 6-311+G(2d,p)
 ****
 1  2  13  14  15  16  17  18  19  20  21  23  24  26 0
 3-21G
 ****
 27  28  34  35  38  39  40  41  42  43  44  45  46  47  48 0
 3-21G
 ****


