%nproc=1
%NoSave
%Mem=1900MB
#P OB98/GEN NMR

erre ene a

0 1
  C     -238.895     317.930     219.842
  O     -238.257     317.327     218.735
  H     -238.296     318.784     220.169
  H     -238.967     317.213     220.665
  H     -239.893     318.283     219.563
  P     -239.070     316.162     217.980
  C     -239.538     313.643     218.554
  O     -238.897     314.859     218.900
  C     -239.109     312.524     219.501
  O     -237.686     312.304     219.348
  C     -239.379     312.823     220.977
  O     -239.773     311.612     221.623
  C     -238.028     313.278     221.503
  O     -237.917     313.091     222.913
  C     -237.068     312.438     220.647
  N     -235.739     313.043     220.548
  C     -234.815     312.696     221.534
  O     -235.139     311.928     222.445
  N     -233.562     313.252     221.497
  C     -233.276     314.137     220.591
  N     -232.026     314.666     220.619
  C     -234.239     314.575     219.561
  C     -235.434     313.986     219.590
  O     -238.125     315.871     216.722
  O     -240.475     316.522     217.632
  H     -237.055     313.467     223.201
  H     -237.177     315.867     216.939
  H     -233.962     315.327     218.838
  H     -236.199     314.245     218.865
  H     -236.958     311.432     221.069
  H     -237.885     314.348     221.292
  H     -240.143     313.587     221.131
  H     -239.604     311.595     219.189
  H     -231.401     314.355     221.353
  H     -239.292     313.363     217.524
  H     -231.714     315.398     219.997
  H     -240.619     313.801     218.615
  P     -241.331     311.304     221.832
  C     -242.951     311.234     223.837
  O     -241.769     311.801     223.296
  O     -241.777     309.926     221.475
  O     -242.039     312.390     220.879
  H     -242.811     311.964     220.459
  H     -243.131     311.645     224.808
  H     -242.835     310.173     223.914
  H     -243.779     311.456     223.196

 6  7  8  9  10  11  12  13  14  15  16  26  30  31  32  33  35 0
 6-311+G(2d,p)
 ****
 37  38 0
 6-311+G(2d,p)
 ****
 1  2  3  4  5  17  18  19  20  21  22  23  24  25 0
 3-21G
 ****
 27  28  29  34  36  39  40  41  42  43  44  45  46 0
 3-21G
 ****


