%nproc=1
%NoSave
%Mem=1900MB
#P OB98/GEN NMR

erre ene a

0 1
  C     1078.078    -165.979    -413.408
  O     1077.275    -166.378    -412.303
  P     1077.168    -167.951    -412.001
  C     1075.617    -167.227    -410.031
  O     1075.855    -168.153    -411.076
  C     1074.176    -167.333    -409.544
  O     1073.266    -166.843    -410.549
  C     1073.702    -168.764    -409.261
  O     1074.115    -169.200    -407.973
  C     1072.195    -168.597    -409.300
  O     1071.699    -168.026    -408.061
  C     1072.013    -167.564    -410.428
  N     1068.518    -170.279    -412.914
  C     1068.427    -169.629    -411.681
  N     1067.277    -169.763    -411.008
  N     1069.396    -168.906    -411.188
  C     1070.495    -168.858    -411.972
  C     1070.675    -169.440    -413.195
  C     1069.622    -170.254    -413.751
  O     1069.649    -170.893    -414.802
  N     1071.947    -169.154    -413.715
  C     1072.490    -168.390    -412.793
  N     1071.689    -168.216    -411.698
  O     1078.361    -168.210    -410.967
  O     1077.280    -168.848    -413.194
  H     1071.876    -168.669    -407.355
  H     1078.554    -169.151    -410.899
  H     1067.729    -170.842    -413.241
  H     1073.500    -167.956    -412.858
  H     1071.217    -166.830    -410.209
  H     1071.640    -169.538    -409.447
  H     1066.534    -170.359    -411.311
  H     1074.025    -169.458    -410.042
  H     1067.224    -169.363    -410.079
  H     1074.055    -166.702    -408.651
  H     1075.830    -166.204    -410.385
  H     1076.304    -167.450    -409.207
  P     1073.577    -170.653    -407.515
  C     1073.549    -169.791    -405.064
  O     1072.813    -170.387    -406.103
  O     1074.938    -171.408    -407.088
  O     1072.793    -171.391    -408.556
  H     1074.807    -172.397    -407.196
  H     1072.854    -169.453    -404.300
  H     1074.113    -168.920    -405.420
  H     1074.240    -170.497    -404.605
  H     1078.061    -164.913    -413.494
  H     1077.692    -166.416    -414.305
  H     1079.084    -166.309    -413.255

 3  4  5  6  7  8  9  10  11  12  23  26  30  31 0
 6-311+G(2d,p)
 ****
 33  35  36  37  38 0
 6-311+G(2d,p)
 ****
 1  2  13  14  15  16  17  18  19  20  21  22  24  25 0
 3-21G
 ****
 27  28  29  32  34  39  40  41  42  43  44  45  46  47  48  49 0
 3-21G
 ****


