%nproc=1
%NoSave
%Mem=1900MB
#P OB98/GEN NMR

erre ene a

0 1
  C     -421.206    -129.127    -519.598
  O     -420.206    -129.866    -520.270
  H     -421.490    -129.662    -518.690
  H     -422.091    -129.021    -520.234
  H     -420.825    -128.141    -519.324
  P     -419.687    -129.279    -521.670
  C     -417.860    -127.922    -520.418
  O     -418.942    -127.899    -521.340
  C     -416.891    -126.786    -520.738
  O     -416.361    -126.953    -522.073
  C     -417.527    -125.403    -520.724
  O     -417.707    -124.907    -519.411
  C     -416.508    -124.610    -521.522
  O     -415.420    -124.170    -520.696
  C     -416.026    -125.643    -522.569
  N     -416.596    -125.395    -523.890
  C     -416.866    -124.063    -524.187
  O     -416.646    -123.138    -523.405
  N     -417.435    -123.829    -525.410
  C     -417.788    -124.780    -526.324
  O     -418.363    -124.508    -527.372
  C     -417.467    -126.170    -525.959
  C     -416.904    -126.410    -524.771
  O     -421.042    -128.820    -522.391
  O     -418.900    -130.234    -522.502
  H     -421.294    -129.472    -523.070
  H     -415.795    -123.520    -520.071
  H     -417.646    -122.870    -525.643
  H     -417.729    -126.946    -526.663
  H     -416.677    -127.430    -524.470
  H     -414.932    -125.608    -522.660
  H     -416.949    -123.720    -521.964
  H     -418.476    -125.418    -521.277
  H     -416.054    -126.834    -520.024
  H     -417.330    -128.876    -520.500
  H     -418.257    -127.822    -519.403
  P     -418.919    -123.897    -519.133
  C     -420.165    -125.666    -517.641
  O     -420.193    -124.804    -518.761
  O     -419.231    -123.370    -520.611
  O     -418.599    -122.833    -518.138
  H     -419.111    -124.057    -521.289
  H     -421.100    -126.180    -517.563
  H     -419.998    -125.092    -516.753
  H     -419.376    -126.379    -517.759

 6  7  8  9  10  11  12  13  14  15  16  27  31  32  33  34  35 0
 6-311+G(2d,p)
 ****
 36  37 0
 6-311+G(2d,p)
 ****
 1  2  3  4  5  17  18  19  20  21  22  23  24  25 0
 3-21G
 ****
 26  28  29  30  38  39  40  41  42  43  44  45 0
 3-21G
 ****


