%nproc=1
%NoSave
%Mem=1900MB
#P OB98/GEN NMR

erre ene a

0 1
  C       59.759      33.115      12.039
  O       59.168      32.248      12.981
  H       60.713      33.468      12.439
  H       59.107      33.976      11.873
  H       59.944      32.607      11.089
  P       58.023      31.245      12.492
  C       56.002      31.450      10.898
  O       56.844      32.115      11.832
  C       54.956      32.395      10.308
  O       54.036      32.807      11.341
  C       55.576      33.672       9.733
  O       56.004      33.562       8.386
  C       54.425      34.667       9.864
  O       53.573      34.634       8.707
  C       53.669      34.173      11.102
  N       52.521      38.355      13.811
  C       52.114      38.009      12.536
  N       51.336      38.911      11.899
  N       52.457      36.893      11.949
  C       53.317      36.140      12.671
  C       53.806      36.389      13.934
  C       53.362      37.591      14.607
  O       53.680      37.934      15.741
  N       54.693      35.417      14.333
  C       54.803      34.635      13.278
  N       53.929      34.987      12.276
  O       57.356      30.745      13.863
  O       58.492      30.078      11.678
  H       54.133      34.756       7.915
  H       57.028      29.834      13.753
  H       52.201      39.213      14.221
  H       55.462      33.777      13.203
  H       52.584      34.188      10.939
  H       54.803      35.689       9.947
  H       51.113      39.820      12.269
  H       56.400      34.019      10.362
  H       51.173      38.784      10.898
  H       54.370      31.858       9.551
  H       55.512      30.641      11.443
  H       56.600      30.995      10.104
  P       57.456      34.061       7.943
  C       58.705      36.370       7.990
  O       57.490      35.654       8.032
  O       57.469      33.779       6.369
  O       58.601      33.404       8.641
  H       57.934      32.944       6.173
  H       58.504      37.418       8.064
  H       59.207      36.167       7.067
  H       59.326      36.067       8.807

 6  7  8  9  10  11  12  13  14  15  26  29  33  34 0
 6-311+G(2d,p)
 ****
 36  38  39  40  41 0
 6-311+G(2d,p)
 ****
 1  2  3  4  5  16  17  18  19  20  21  22  23  24  25 0
 3-21G
 ****
 27  28  30  31  32  35  37  42  43  44  45  46  47 0
 3-21G
 ****
 48  49 0
 3-21G
 ****


