%nproc=1
%NoSave
%Mem=1900MB
#P OB98/GEN NMR

erre ene a

0 1
  C      196.146    -115.012    -247.789
  O      194.758    -114.832    -247.982
  H      196.622    -114.030    -247.745
  H      196.581    -115.576    -248.619
  H      196.334    -115.533    -246.847
  P      193.842    -116.130    -248.197
  C      193.933    -117.945    -246.357
  O      193.455    -116.663    -246.735
  C      193.446    -118.316    -244.951
  O      193.846    -117.271    -244.022
  C      191.919    -118.461    -244.841
  O      191.652    -119.424    -243.817
  C      191.518    -117.071    -244.386
  O      190.198    -117.047    -243.901
  C      192.645    -116.772    -243.393
  N      192.746    -115.357    -243.072
  C      192.223    -114.964    -241.835
  O      191.705    -115.796    -241.089
  N      192.276    -113.639    -241.488
  C      192.744    -112.770    -242.327
  N      192.754    -111.470    -241.927
  C      193.250    -113.133    -243.667
  C      193.228    -114.433    -243.969
  O      194.395    -117.169    -249.117
  O      192.459    -115.541    -248.746
  H      190.039    -116.243    -243.359
  H      192.386    -115.712    -249.704
  H      193.612    -112.369    -244.338
  H      193.576    -114.795    -244.931
  H      192.506    -117.332    -242.460
  H      191.556    -116.365    -245.224
  H      191.451    -118.767    -245.780
  H      193.955    -119.237    -244.633
  H      192.387    -111.266    -241.004
  H      195.027    -117.907    -246.374
  H      193.074    -110.707    -242.503
  H      193.598    -118.702    -247.074
  P      191.429    -120.983    -244.125
  C      193.034    -122.958    -243.689
  O      192.852    -121.696    -244.323
  O      190.455    -121.252    -245.228
  O      190.893    -121.605    -242.745
  H      190.299    -122.352    -242.943
  H      194.018    -123.323    -243.898
  H      192.309    -123.652    -244.061
  H      192.912    -122.847    -242.632

 6  7  8  9  10  11  12  13  14  15  16  26  30  31  32  33  35 0
 6-311+G(2d,p)
 ****
 37  38 0
 6-311+G(2d,p)
 ****
 1  2  3  4  5  17  18  19  20  21  22  23  24  25 0
 3-21G
 ****
 27  28  29  34  36  39  40  41  42  43  44  45  46 0
 3-21G
 ****


