%nproc=1
%NoSave
%Mem=1900MB
#P OB98/GEN NMR

erre ene a

0 1
  C      -16.212    -713.538     -19.995
  O      -16.682    -712.194     -20.110
  P      -18.221    -711.999     -20.571
  C      -18.681    -711.064     -18.188
  O      -18.887    -710.923     -19.585
  C      -18.930    -709.725     -17.476
  O      -17.848    -708.804     -17.696
  C      -20.168    -709.001     -17.946
  O      -21.358    -709.524     -17.361
  C      -19.900    -707.583     -17.427
  O      -20.287    -707.503     -16.038
  C      -18.386    -707.462     -17.584
  N      -18.110    -702.860     -19.692
  C      -18.595    -703.240     -18.459
  N      -19.049    -702.249     -17.650
  N      -18.631    -704.488     -18.039
  C      -18.124    -705.355     -18.933
  C      -17.612    -705.108     -20.188
  C      -17.610    -703.733     -20.660
  O      -17.212    -703.348     -21.756
  N      -17.187    -706.259     -20.800
  C      -17.396    -707.206     -19.906
  N      -17.980    -706.706     -18.756
  O      -18.900    -713.379     -20.128
  O      -18.376    -711.736     -22.034
  H      -21.228    -707.233     -16.014
  H      -19.672    -713.566     -20.703
  H      -18.104    -701.891     -19.960
  H      -17.143    -708.252     -20.032
  H      -17.915    -707.003     -16.708
  H      -20.481    -706.819     -17.958
  H      -18.977    -701.260     -17.887
  H      -20.240    -708.981     -19.043
  H      -19.365    -702.500     -16.726
  H      -18.999    -709.937     -16.392
  H      -17.648    -711.379     -17.998
  H      -19.339    -711.845     -17.806
  P      -22.606    -709.810     -18.342
  C      -22.607    -712.379     -17.905
  O      -23.297    -711.149     -17.775
  O      -21.901    -710.281     -19.696
  O      -23.495    -708.635     -18.546
  H      -22.467    -710.049     -20.463
  H      -21.548    -712.259     -17.657
  H      -22.698    -712.734     -18.940
  H      -23.052    -713.090     -17.226
  H      -15.188    -713.532     -19.685
  H      -16.295    -714.027     -20.943
  H      -16.801    -714.061     -19.271

 3  4  5  6  7  8  9  10  11  12  23  26  30  31  33  0
 6-311+G(2d,p)
 ****
 35  36  37  38 0
 6-311+G(2d,p)
 ****
 1  2  13  14  15  16  17  18  19  20  21  22  24  25  27  28  29 0
 3-21G
 ****
 32  34  39  40  41  42  43  44  45  46  47  48  49 0
 3-21G
 ****


