%nproc=1
%NoSave
%Mem=1900MB
#P OB98/GEN NMR

erre ene a

0 1
  C     -207.002    -126.072    -109.802
  O     -208.099    -125.180    -109.727
  P     -209.566    -125.839    -109.618
  C     -210.761    -125.034    -111.801
  O     -210.064    -126.068    -111.126
  C     -212.017    -125.602    -112.462
  O     -211.657    -126.490    -113.539
  C     -212.906    -126.408    -111.524
  O     -213.728    -125.550    -110.758
  C     -213.675    -127.279    -112.510
  O     -214.774    -126.550    -113.094
  C     -212.601    -127.598    -113.559
  N     -212.389    -132.488    -114.833
  C     -213.346    -131.532    -115.127
  N     -214.369    -131.931    -115.913
  N     -213.300    -130.301    -114.694
  C     -212.224    -130.045    -113.908
  C     -211.224    -130.910    -113.538
  C     -211.257    -132.257    -114.062
  O     -210.390    -133.110    -113.913
  N     -210.311    -130.299    -112.712
  C     -210.752    -129.059    -112.615
  N     -211.898    -128.847    -113.339
  O     -210.465    -124.626    -109.090
  O     -209.655    -127.053    -108.744
  H     -214.418    -125.795    -113.592
  H     -210.600    -124.694    -108.122
  H     -212.473    -133.416    -115.209
  H     -210.266    -128.276    -112.054
  H     -213.020    -127.644    -114.575
  H     -214.106    -128.161    -112.031
  H     -214.484    -132.867    -116.263
  H     -212.292    -127.046    -110.870
  H     -215.087    -131.243    -116.138
  H     -212.578    -124.762    -112.892
  H     -210.108    -124.600    -112.567
  H     -211.023    -124.246    -111.083
  P     -214.062    -125.989    -109.252
  C     -216.150    -127.415    -109.851
  O     -214.833    -127.391    -109.327
  O     -215.195    -124.947    -108.806
  O     -212.891    -125.948    -108.324
  H     -215.084    -124.726    -107.860
  H     -216.319    -128.391    -110.321
  H     -216.300    -126.629    -110.599
  H     -216.864    -127.279    -109.035
  H     -206.092    -125.513    -109.870
  H     -207.105    -126.693    -110.668
  H     -206.980    -126.684    -108.925

 3  4  5  6  7  8  9  10  11  12  23  26  30  31 0
 6-311+G(2d,p)
 ****
 33  35  36  37  38 0
 6-311+G(2d,p)
 ****
 1  2  13  14  15  16  17  18  19  20  21  22  24  25 0
 3-21G
 ****
 27  28  29  32  34  39  40  41  42  43  44  45  46  47  48  49 0
 3-21G
 ****


