%nproc=1
%NoSave
%Mem=1900MB
#P OB98/GEN NMR

erre ene a

0 1
  C      -94.816      41.889       8.794
  O      -96.102      42.042       9.360
  H      -94.824      41.018       8.132
  H      -94.072      41.727       9.579
  H      -94.553      42.775       8.211
  P      -96.266      43.212      10.449
  C      -97.533      44.446       8.531
  O      -96.554      44.516       9.556
  C      -98.495      45.623       8.657
  O      -97.772      46.873       8.654
  C      -99.499      45.732       7.515
  O     -100.581      44.825       7.643
  C      -99.946      47.172       7.681
  O     -100.852      47.271       8.795
  C      -98.602      47.868       7.995
  N      -97.931      48.387       6.802
  C      -98.258      49.692       6.416
  O      -99.079      50.347       7.055
  N      -97.670      50.216       5.289
  C      -96.822      49.506       4.613
  N      -96.281      50.069       3.499
  C      -96.436      48.134       4.994
  C      -97.022      47.644       6.083
  O      -94.769      43.464      10.959
  O      -97.254      42.961      11.537
  H     -101.125      48.205       8.855
  H      -94.746      44.257      11.547
  H      -95.733      47.577       4.392
  H      -96.788      46.641       6.422
  H      -98.744      48.693       8.702
  H     -100.468      47.563       6.806
  H      -99.013      45.626       6.539
  H      -99.002      45.542       9.627
  H      -96.611      50.985       3.228
  H      -98.076      43.501       8.635
  H      -95.758      49.534       2.817
  H      -97.051      44.475       7.549
  P     -101.381      44.428       6.308
  C     -100.485      41.994       6.436
  O     -100.617      43.175       5.658
  O     -101.034      45.627       5.310
  O     -102.858      44.254       6.486
  H     -101.809      45.872       4.770
  H      -99.957      41.253       5.873
  H     -101.456      41.624       6.690
  H      -99.942      42.215       7.331

 6  7  8  9  10  11  12  13  14  15  16  26  30  31  32  33  35 0
 6-311+G(2d,p)
 ****
 37  38 0
 6-311+G(2d,p)
 ****
 1  2  3  4  5  17  18  19  20  21  22  23  24  25 0
 3-21G
 ****
 27  28  29  34  36  39  40  41  42  43  44  45  46 0
 3-21G
 ****


