%nproc=1
%NoSave
%Mem=1900MB
#P OB98/GEN NMR

erre ene a

0 1
  C      -20.995      55.308     -45.787
  O      -20.393      55.511     -47.050
  P      -18.882      55.067     -47.327
  C      -18.325      57.527     -46.870
  O      -17.913      56.178     -46.698
  C      -17.306      58.502     -46.279
  O      -17.220      58.297     -44.845
  C      -15.892      58.361     -46.862
  O      -15.344      59.679     -46.971
  C      -15.163      57.565     -45.796
  O      -13.751      57.735     -45.861
  C      -15.826      58.114     -44.525
  N      -15.652      57.233     -43.381
  C      -14.411      57.259     -42.744
  O      -13.481      57.903     -43.230
  N      -14.254      56.543     -41.583
  C      -15.191      55.727     -41.204
  N      -15.026      55.090     -40.013
  C      -16.416      55.490     -41.995
  C      -16.602      56.297     -43.034
  O      -18.576      54.712     -48.747
  O      -18.658      53.807     -46.363
  H      -18.323      53.056     -46.893
  H      -13.336      57.196     -45.155
  H      -17.107      54.711     -41.705
  H      -17.486      56.221     -43.661
  H      -15.420      59.104     -44.274
  H      -15.383      56.499     -45.912
  H      -15.883      57.880     -47.845
  H      -17.677      59.521     -46.441
  H      -14.193      55.308     -39.480
  H      -19.282      57.660     -46.360
  H      -15.811      54.699     -39.494
  H      -18.485      57.734     -47.937
  P      -14.383      60.004     -48.217
  C      -12.194      60.003     -46.823
  O      -12.928      59.423     -47.880
  O      -14.159      61.586     -48.048
  O      -14.932      59.714     -49.578
  H      -13.942      61.972     -48.917
  H      -11.207      59.533     -46.780
  H      -12.702      59.831     -45.868
  H      -12.064      61.076     -46.984
  H      -22.001      55.672     -45.809
  H      -20.441      55.836     -45.039
  H      -20.998      54.263     -45.557

 3  4  5  6  7  8  9  10  11  12  13  24  27  28  29  30  32 0
 6-311+G(2d,p)
 ****
 34  35 0
 6-311+G(2d,p)
 ****
 1  2  14  15  16  17  18  19  20  21  22  23  25  26 0
 3-21G
 ****
 31  33  36  37  38  39  40  41  42  43  44  45  46 0
 3-21G
 ****


