%nproc=1
%NoSave
%Mem=1900MB
#P OB98/GEN NMR

erre ene a

0 1
  C     -201.021     469.036     120.447
  O     -201.390     468.496     119.192
  H     -200.801     468.212     121.133
  H     -201.833     469.634     120.868
  H     -200.123     469.649     120.340
  P     -202.025     469.486     118.100
  C     -199.856     469.764     116.735
  O     -200.803     470.400     117.589
  C     -199.114     470.790     115.876
  O     -198.139     470.135     115.033
  C     -200.004     471.565     114.919
  O     -200.923     472.431     115.540
  C     -198.989     472.129     113.936
  O     -198.370     473.323     114.421
  C     -197.948     470.982     113.875
  N     -198.038     470.221     112.631
  C     -197.727     470.919     111.468
  O     -197.414     472.111     111.452
  N     -197.818     470.202     110.308
  C     -198.228     468.908     110.191
  O     -198.304     468.328     109.113
  C     -198.579     468.234     111.451
  C     -198.469     468.913     112.597
  O     -203.219     470.271     118.557
  O     -202.321     468.538     116.848
  H     -199.089     473.908     114.728
  H     -202.932     468.973     116.204
  H     -197.579     470.685     109.453
  H     -198.917     467.210     111.398
  H     -198.723     468.435     113.544
  H     -196.931     471.388     113.952
  H     -199.440     472.367     112.972
  H     -200.609     470.841     114.357
  H     -198.567     471.464     116.548
  H     -200.405     469.076     116.082
  H     -199.146     469.189     117.339
  P     -202.008     473.290     114.744
  C     -203.911     471.648     115.466
  O     -203.259     472.346     114.412
  O     -201.498     474.185     113.668
  O     -202.602     474.227     115.920
  H     -202.830     475.090     115.514
  H     -204.718     471.070     115.066
  H     -204.294     472.351     116.176
  H     -203.212     470.998     115.949

 6  7  8  9  10  11  12  13  14  15  16  26  31  32  33  34  35 0
 6-311+G(2d,p)
 ****
 36  37 0
 6-311+G(2d,p)
 ****
 1  2  3  4  5  17  18  19  20  21  22  23  24  25 0
 3-21G
 ****
 27  28  29  30  38  39  40  41  42  43  44  45 0
 3-21G
 ****


