%nproc=1
%NoSave
%Mem=1900MB
#P OB98/GEN NMR

erre ene a

0 1
  C      700.654     755.334    -138.722
  O      700.430     755.190    -140.107
  H      699.813     754.879    -138.181
  H      700.697     756.395    -138.458
  H      701.577     754.835    -138.418
  P      701.589     755.625    -141.124
  C      702.265     753.153    -141.434
  O      702.697     754.466    -141.093
  C      702.840     752.754    -142.801
  O      704.285     752.645    -142.709
  C      702.349     751.405    -143.309
  O      701.022     751.481    -143.804
  C      703.414     751.098    -144.351
  O      703.122     751.769    -145.591
  C      704.687     751.675    -143.710
  N      705.525     750.628    -143.107
  C      705.930     749.604    -143.954
  O      705.616     749.559    -145.153
  N      706.638     748.601    -143.367
  C      706.856     748.459    -142.024
  O      707.283     747.420    -141.518
  C      706.463     749.596    -141.183
  C      705.814     750.609    -141.756
  O      702.115     757.010    -140.955
  O      700.913     755.431    -142.572
  H      700.642     756.299    -142.917
  H      702.175     751.594    -145.773
  H      706.901     747.820    -143.971
  H      706.679     749.547    -140.117
  H      705.473     751.446    -141.159
  H      705.290     752.212    -144.451
  H      703.473     750.018    -144.558
  H      702.416     750.665    -142.500
  H      702.602     753.556    -143.525
  H      701.170     753.154    -141.498
  H      702.591     752.458    -140.667
  P      700.059     750.207    -143.692
  C      698.374     751.016    -141.924
  O      699.470     750.150    -142.207
  O      700.639     748.924    -144.189
  O      698.772     750.634    -144.559
  H      698.576     749.905    -145.201
  H      698.071     750.887    -140.906
  H      697.556     750.780    -142.572
  H      698.672     752.032    -142.081

 6  7  8  9  10  11  12  13  14  15  16  27  31  32  33  34  35 0
 6-311+G(2d,p)
 ****
 36  37 0
 6-311+G(2d,p)
 ****
 1  2  3  4  5  17  18  19  20  21  22  23  24  25 0
 3-21G
 ****
 26  28  29  30  38  39  40  41  42  43  44  45 0
 3-21G
 ****


