%nproc=1
%NoSave
%Mem=1900MB
#P OB98/GEN NMR

erre ene a

0 1
  C       48.799      33.625     151.761
  O       47.899      34.430     152.488
  P       46.332      34.485     152.206
  C       46.472      36.722     150.862
  O       45.911      36.012     151.958
  C       45.451      37.697     150.256
  O       46.041      38.311     149.081
  C       44.181      36.967     149.791
  O       42.974      37.653     150.090
  C       44.473      36.678     148.324
  O       43.311      36.419     147.552
  C       45.282      37.908     147.921
  N       45.827      37.750     142.873
  C       44.769      38.231     143.618
  N       43.649      38.539     142.930
  N       44.802      38.360     144.920
  C       45.947      37.907     145.480
  C       47.062      37.411     144.844
  C       47.025      37.305     143.405
  O       47.896      36.779     142.713
  N       48.009      36.984     145.738
  C       47.455      37.187     146.916
  N       46.189      37.716     146.809
  O       45.462      33.651     153.090
  O       46.247      33.868     150.716
  H       42.912      35.596     147.888
  H       45.407      33.370     150.659
  H       45.711      37.598     141.878
  H       47.909      36.946     147.870
  H       44.632      38.739     147.641
  H       45.091      35.774     148.283
  H       43.544      38.311     141.951
  H       44.069      36.016     150.323
  H       42.793      38.651     143.467
  H       45.240      38.492     150.979
  H       46.758      35.968     150.120
  H       47.378      37.252     151.169
  P       41.571      37.056     150.563
  C       40.629      36.033     148.408
  O       40.553      37.103     149.329
  O       40.969      38.148     151.563
  O       41.657      35.727     151.241
  H       40.531      37.700     152.312
  H       40.099      36.317     147.495
  H       40.153      35.147     148.835
  H       41.671      35.808     148.158
  H       49.790      33.765     152.140
  H       48.770      33.902     150.728
  H       48.520      32.597     151.863

 3  4  5  6  7  8  9  10  11  12  23  26  30  31 0
 6-311+G(2d,p)
 ****
 33  35  36  37  38 0
 6-311+G(2d,p)
 ****
 1  2  13  14  15  16  17  18  19  20  21  22  24  25 0
 3-21G
 ****
 27  28  29  32  34  39  40  41  42  43  44  45  46  47  48  49 0
 3-21G
 ****


