%nproc=1
%NoSave
%Mem=1900MB
#P OB98/GEN NMR

erre ene a

0 1
  C      243.229     133.913    -312.513
  O      244.547     133.581    -312.926
  P      245.043     132.056    -312.973
  C      246.492     132.373    -310.870
  O      245.391     131.687    -311.451
  C      246.593     132.045    -309.384
  O      245.387     132.510    -308.731
  C      246.689     130.558    -309.033
  O      248.001     130.026    -309.094
  C      246.223     130.582    -307.578
  O      247.299     131.027    -306.732
  C      245.107     131.628    -307.616
  N      241.125     129.488    -305.207
  C      242.284     130.015    -304.748
  N      243.304     130.549    -305.456
  C      243.017     130.551    -306.771
  C      241.883     130.052    -307.384
  C      240.897     129.502    -306.540
  N      239.709     128.985    -307.010
  N      241.957     130.209    -308.756
  C      243.117     130.801    -308.955
  N      243.788     131.036    -307.786
  O      246.118     131.784    -313.965
  O      243.711     131.216    -313.253
  H      246.931     131.124    -305.834
  H      243.940     130.320    -313.558
  H      242.420     130.001    -303.669
  H      243.509     131.075    -309.925
  H      245.078     132.248    -306.711
  H      245.917     129.593    -307.218
  H      245.985     129.963    -309.625
  H      247.442     132.601    -308.961
  H      246.329     133.451    -310.993
  H      239.015     128.732    -306.324
  H      239.472     129.140    -307.981
  H      247.412     132.102    -311.398
  P      248.162     128.544    -309.711
  C      248.177     127.239    -307.441
  O      247.498     127.554    -308.639
  O      249.546     128.198    -310.132
  O      247.103     128.547    -310.911
  H      246.172     128.598    -310.646
  H      247.497     126.691    -306.783
  H      248.504     128.149    -306.925
  H      249.046     126.607    -307.658
  H      243.100     134.974    -312.552
  H      243.072     133.571    -311.511
  H      242.522     133.443    -313.165

 3  4  5  6  7  8  9  10  11  12  22  25  29  30  31  32 0
 6-311+G(2d,p)
 ****
 33  36  37 0
 6-311+G(2d,p)
 ****
 1  2  13  14  15  16  17  18  19  20  21  23  24  26 0
 3-21G
 ****
 27  28  34  35  38  39  40  41  42  43  44  45  46  47  48 0
 3-21G
 ****


