%nproc=1
%NoSave
%Mem=1900MB
#P OB98/GEN NMR

erre ene a

0 1
  C     -329.697     354.740     454.331
  O     -330.954     354.111     454.466
  P     -332.085     354.763     455.402
  C     -333.239     356.389     453.772
  O     -332.359     356.262     454.882
  C     -334.284     357.471     454.039
  O     -335.156     357.084     455.130
  C     -333.697     358.811     454.462
  O     -333.087     359.491     453.378
  C     -334.923     359.500     455.046
  O     -335.742     360.050     454.002
  C     -335.647     358.315     455.726
  N     -335.473     358.314     457.171
  C     -336.221     359.263     457.878
  O     -336.907     360.088     457.283
  N     -336.156     359.247     459.250
  C     -335.327     358.453     459.852
  N     -335.354     358.438     461.211
  C     -334.402     357.548     459.130
  C     -334.546     357.518     457.809
  O     -331.845     354.644     456.868
  O     -333.428     353.997     454.982
  H     -333.871     353.674     455.788
  H     -335.205     360.731     453.557
  H     -333.689     356.956     459.679
  H     -333.929     356.868     457.190
  H     -336.722     358.344     455.499
  H     -334.659     360.317     455.719
  H     -332.953     358.653     455.255
  H     -334.891     357.592     453.134
  H     -336.010     359.060     461.669
  H     -333.744     355.429     453.613
  H     -335.008     357.655     461.762
  H     -332.661     356.632     452.876
  P     -332.072     360.681     453.735
  C     -330.108     359.030     454.066
  O     -330.899     360.060     454.632
  O     -332.913     361.573     454.775
  O     -331.621     361.489     452.567
  H     -332.706     362.517     454.632
  H     -329.173     358.960     454.636
  H     -329.876     359.228     453.019
  H     -330.637     358.071     454.154
  H     -329.079     354.165     453.673
  H     -329.228     354.810     455.290
  H     -329.831     355.722     453.927

 3  4  5  6  7  8  9  10  11  12  13  24  27  28  29  30  32 0
 6-311+G(2d,p)
 ****
 34  35 0
 6-311+G(2d,p)
 ****
 1  2  14  15  16  17  18  19  20  21  22  23  25  26 0
 3-21G
 ****
 31  33  36  37  38  39  40  41  42  43  44  45  46 0
 3-21G
 ****


