%nproc=1
%NoSave
%Mem=1900MB
#P OB98/GEN NMR

erre ene a

0 1
  C      157.179      63.754       7.021
  O      158.531      64.045       7.329
  H      156.537      64.457       7.559
  H      156.918      62.738       7.333
  H      157.002      63.868       5.947
  P      159.663      63.052       6.779
  C      160.799      61.429       8.448
  O      159.610      61.768       7.739
  C      160.781      62.065       9.834
  O      159.485      61.899      10.444
  C      161.776      61.433      10.796
  O      163.096      61.864      10.516
  C      161.212      61.883      12.129
  O      161.583      63.234      12.425
  C      159.691      61.770      11.872
  N      159.120      60.524      12.375
  C      158.948      60.442      13.761
  O      159.260      61.386      14.487
  N      158.441      59.280      14.287
  C      158.121      58.294      13.507
  N      157.627      57.173      14.095
  C      158.278      58.347      12.038
  C      158.778      59.478      11.546
  O      161.034      63.628       6.593
  O      159.051      62.505       5.404
  H      162.561      63.233      12.484
  H      159.306      63.083       4.662
  H      157.991      57.502      11.427
  H      158.923      59.598      10.478
  H      159.158      62.607      12.344
  H      161.563      61.254      12.948
  H      161.707      60.340      10.748
  H      160.967      63.142       9.723
  H      157.551      57.176      15.107
  H      161.643      61.812       7.865
  H      157.266      56.380      13.584
  H      160.898      60.340       8.530
  P      164.356      61.095      11.141
  C      165.403      62.481      13.049
  O      164.398      61.536      12.688
  O      165.637      61.256      10.394
  O      163.850      59.577      11.222
  H      163.834      59.151      10.327
  H      165.332      62.695      14.095
  H      165.262      63.382      12.490
  H      166.369      62.075      12.833

 6  7  8  9  10  11  12  13  14  15  16  26  30  31  32  33  35 0
 6-311+G(2d,p)
 ****
 37  38 0
 6-311+G(2d,p)
 ****
 1  2  3  4  5  17  18  19  20  21  22  23  24  25 0
 3-21G
 ****
 27  28  29  34  36  39  40  41  42  43  44  45  46 0
 3-21G
 ****


