%nproc=1
%NoSave
%Mem=1900MB
#P OB98/GEN NMR

erre ene a

0 1
  C      600.996    -159.698     392.262
  O      601.472    -158.888     391.210
  P      600.673    -158.810     389.817
  C      601.980    -156.576     389.822
  O      601.334    -157.573     389.029
  C      602.476    -155.420     388.950
  O      601.400    -154.892     388.156
  C      603.033    -154.248     389.745
  O      604.338    -154.537     390.221
  C      602.963    -153.138     388.705
  O      604.103    -153.178     387.817
  C      601.667    -153.479     387.932
  N      600.544    -152.648     388.343
  C      600.113    -151.699     387.393
  O      600.699    -151.600     386.314
  N      599.063    -150.870     387.716
  C      598.517    -150.957     388.889
  N      597.494    -150.102     389.157
  C      598.969    -151.909     389.931
  C      599.972    -152.707     389.592
  O      599.180    -158.769     389.937
  O      601.222    -160.086     389.010
  H      603.905    -152.541     387.107
  H      600.843    -160.917     389.362
  H      598.483    -151.934     390.893
  H      600.367    -153.433     390.293
  H      601.817    -153.362     386.859
  H      602.951    -152.134     389.167
  H      602.361    -154.002     390.579
  H      603.245    -155.816     388.266
  H      597.235    -149.444     388.425
  H      602.831    -157.039     390.326
  H      597.018    -150.061     390.049
  H      601.289    -156.219     390.585
  P      604.856    -153.875     391.572
  C      606.305    -155.937     392.019
  O      606.278    -154.531     391.929
  O      603.873    -153.835     392.695
  O      605.266    -152.384     391.134
  H      604.942    -151.762     391.792
  H      607.344    -156.284     391.937
  H      605.719    -156.404     391.220
  H      605.911    -156.253     392.993
  H      601.657    -159.619     393.100
  H      600.952    -160.716     391.936
  H      600.018    -159.373     392.548

 3  4  5  6  7  8  9  10  11  12  13  23  27  28  29  30  32 0
 6-311+G(2d,p)
 ****
 34  35 0
 6-311+G(2d,p)
 ****
 1  2  14  15  16  17  18  19  20  21  22  24  25  26 0
 3-21G
 ****
 31  33  36  37  38  39  40  41  42  43  44  45  46 0
 3-21G
 ****


