%nproc=1
%NoSave
%Mem=1900MB
#P OB98/GEN NMR

erre ene a

0 1
  C      398.427    -706.150     290.751
  O      398.968    -706.766     289.603
  H      399.115    -705.372     291.093
  H      398.310    -706.889     291.551
  H      397.460    -705.695     290.525
  P      398.066    -707.885     288.887
  C      399.264    -709.911     289.978
  O      398.062    -709.159     289.862
  C      398.963    -711.407     290.047
  O      398.502    -711.732     291.395
  C      397.878    -711.881     289.061
  O      398.221    -713.199     288.621
  C      396.645    -711.979     289.945
  O      395.649    -712.848     289.401
  C      397.278    -712.481     291.243
  N      393.982    -714.850     294.223
  C      394.757    -715.329     293.173
  N      394.626    -716.637     292.873
  N      395.574    -714.586     292.487
  C      395.625    -713.297     292.917
  C      394.917    -712.702     293.933
  C      393.990    -713.531     294.672
  O      393.271    -713.163     295.598
  N      395.230    -711.371     294.042
  C      396.128    -711.160     293.091
  N      396.401    -712.303     292.386
  O      398.992    -708.349     287.665
  O      396.722    -707.428     288.425
  H      394.921    -712.921     290.054
  H      398.771    -707.844     286.859
  H      393.360    -715.463     294.713
  H      396.602    -710.215     292.881
  H      397.533    -713.548     291.200
  H      396.195    -710.988     290.083
  H      394.051    -717.282     293.394
  H      397.740    -711.224     288.198
  H      395.213    -717.013     292.137
  H      399.896    -711.955     289.894
  H      399.787    -709.606     290.896
  H      399.905    -709.699     289.114
  P      399.065    -713.345     287.269
  C      397.052    -713.435     285.626
  O      398.195    -712.729     286.072
  O      398.998    -714.918     286.976
  O      400.474    -712.863     287.370
  H      399.784    -715.200     286.476
  H      396.587    -712.894     284.829
  H      396.360    -713.542     286.435
  H      397.345    -714.403     285.277

 6  7  8  9  10  11  12  13  14  15  26  29  33  34 0
 6-311+G(2d,p)
 ****
 36  38  39  40  41 0
 6-311+G(2d,p)
 ****
 1  2  3  4  5  16  17  18  19  20  21  22  23  24  25 0
 3-21G
 ****
 27  28  30  31  32  35  37  42  43  44  45  46  47 0
 3-21G
 ****
 48  49 0
 3-21G
 ****


