%nproc=1
%NoSave
%Mem=1900MB
#P OB98/GEN NMR

erre ene a

0 1
  C     -208.962    -177.300     317.414
  O     -209.108    -178.693     317.640
  P     -207.926    -179.710     317.294
  C     -208.544    -180.831     315.000
  O     -207.824    -179.844     315.710
  C     -207.596    -181.536     314.020
  O     -207.104    -180.595     313.041
  C     -206.395    -182.139     314.744
  O     -206.628    -183.507     315.048
  C     -205.267    -181.927     313.745
  O     -205.287    -182.957     312.740
  C     -205.651    -180.564     313.126
  N     -205.267    -179.332     313.856
  C     -203.927    -178.955     313.907
  O     -203.023    -179.565     313.345
  N     -203.656    -177.840     314.660
  C     -204.575    -177.068     315.308
  O     -204.307    -176.232     316.163
  C     -205.981    -177.360     314.995
  C     -206.255    -178.476     314.318
  O     -208.521    -181.121     317.747
  O     -206.616    -179.418     317.949
  H     -205.171    -183.810     313.196
  H     -208.186    -181.372     318.630
  H     -202.673    -177.640     314.810
  H     -206.741    -176.690     315.376
  H     -207.294    -178.732     314.102
  H     -205.260    -180.469     312.111
  H     -204.295    -181.994     314.230
  H     -206.166    -181.564     315.654
  H     -208.154    -182.320     313.488
  H     -209.379    -180.372     314.457
  H     -208.976    -181.558     315.699
  P     -206.143    -184.097     316.454
  C     -203.758    -183.298     315.983
  O     -204.861    -183.225     316.858
  O     -205.960    -185.575     316.505
  O     -207.289    -183.608     317.467
  H     -207.933    -184.332     317.618
  H     -203.028    -182.535     316.262
  H     -204.074    -183.123     314.946
  H     -203.283    -184.283     316.057
  H     -209.858    -176.795     317.708
  H     -208.779    -177.125     316.374
  H     -208.139    -176.930     317.989

 3  4  5  6  7  8  9  10  11  12  13  23  28  29  30  31  32 0
 6-311+G(2d,p)
 ****
 33  34 0
 6-311+G(2d,p)
 ****
 1  2  14  15  16  17  18  19  20  21  22  24  25  26  27 0
 3-21G
 ****
 35  36  37  38  39  40  41  42  43  44  45 0
 3-21G
 ****


