%nproc=1
%NoSave
%Mem=1900MB
#P OB98/GEN NMR

erre ene a

0 1
  C      177.132     615.050     507.796
  O      176.910     616.445     507.828
  H      176.352     614.586     507.189
  H      177.086     614.642     508.806
  H      178.105     614.830     507.348
  P      178.054     617.345     508.514
  C      179.333     617.138     510.802
  O      178.215     616.766     510.004
  C      179.697     616.004     511.756
  O      178.626     615.821     512.709
  C      179.942     614.653     511.067
  O      181.005     613.979     511.735
  C      178.631     613.905     511.279
  O      178.808     612.491     511.207
  C      178.203     614.445     512.648
  N      176.752     614.331     512.862
  C      176.268     613.056     513.178
  O      177.034     612.093     513.255
  N      174.918     612.895     513.372
  C      174.109     613.901     513.191
  N      172.788     613.666     513.368
  C      174.579     615.242     512.799
  C      175.897     615.388     512.668
  O      177.288     618.735     508.724
  O      179.314     617.440     507.723
  H      177.960     612.065     511.445
  H      176.369     618.633     509.037
  H      173.865     616.042     512.633
  H      176.323     616.351     512.387
  H      178.709     613.903     513.461
  H      177.906     614.192     510.512
  H      180.170     614.756     510.006
  H      180.585     616.308     512.341
  H      172.501     612.729     513.609
  H      179.105     618.043     511.375
  H      172.071     614.360     513.203
  H      180.166     617.362     510.130
  P      182.400     613.788     510.972
  C      183.211     612.443     508.923
  O      182.291     612.503     510.013
  O      183.630     613.826     511.836
  O      182.417     614.999     509.921
  H      183.337     615.347     509.871
  H      183.041     611.548     508.362
  H      184.212     612.442     509.301
  H      183.070     613.294     508.290

 6  7  8  9  10  11  12  13  14  15  16  26  30  31  32  33  35 0
 6-311+G(2d,p)
 ****
 37  38 0
 6-311+G(2d,p)
 ****
 1  2  3  4  5  17  18  19  20  21  22  23  24  25 0
 3-21G
 ****
 27  28  29  34  36  39  40  41  42  43  44  45  46 0
 3-21G
 ****


