%nproc=1
%NoSave
%Mem=1900MB
#P OB98/GEN NMR

erre ene a

0 1
  C       59.705    -225.000      49.143
  O       58.727    -224.547      50.051
  H       59.221    -225.632      48.393
  H       60.452    -225.598      49.676
  H       60.197    -224.166      48.634
  P       59.056    -223.279      50.970
  C       60.496    -224.643      52.624
  O       60.459    -223.558      51.705
  C       61.281    -224.294      53.891
  O       62.632    -223.905      53.551
  C       60.675    -223.106      54.640
  O       59.609    -223.422      55.519
  C       61.883    -222.577      55.411
  O       62.047    -223.282      56.653
  C       63.048    -222.876      54.464
  N       66.181    -218.844      54.277
  C       66.014    -219.765      55.291
  N       66.725    -219.552      56.418
  N       65.204    -220.788      55.207
  C       64.484    -220.820      54.058
  C       64.553    -219.953      52.990
  C       65.494    -218.854      53.069
  O       65.678    -218.005      52.201
  N       63.672    -220.306      51.994
  C       63.019    -221.338      52.494
  N       63.493    -221.702      53.734
  O       58.004    -223.403      52.176
  O       58.940    -221.948      50.290
  H       62.307    -224.199      56.454
  H       57.825    -222.522      52.553
  H       66.839    -218.089      54.385
  H       62.216    -221.868      51.994
  H       63.917    -223.266      55.011
  H       61.769    -221.517      55.663
  H       67.272    -218.718      56.574
  H       60.353    -222.333      53.933
  H       66.436    -220.042      57.269
  H       61.349    -225.182      54.530
  H       60.974    -225.478      52.107
  H       59.480    -224.960      52.880
  P       58.395    -222.394      55.708
  C       59.552    -221.470      57.850
  O       58.940    -221.185      56.613
  O       57.407    -223.188      56.689
  O       57.714    -221.984      54.445
  H       56.711    -223.635      56.173
  H       59.853    -220.556      58.318
  H       60.410    -222.088      57.689
  H       58.857    -221.982      58.482

 6  7  8  9  10  11  12  13  14  15  26  29  33  34 0
 6-311+G(2d,p)
 ****
 36  38  39  40  41 0
 6-311+G(2d,p)
 ****
 1  2  3  4  5  16  17  18  19  20  21  22  23  24  25 0
 3-21G
 ****
 27  28  30  31  32  35  37  42  43  44  45  46  47 0
 3-21G
 ****
 48  49 0
 3-21G
 ****


