%nproc=1
%NoSave
%Mem=1900MB
#P OB98/GEN NMR

erre ene a

0 1
  C      446.956     540.625      30.527
  O      446.516     539.280      30.527
  H      446.810     541.041      31.526
  H      446.379     541.215      29.815
  H      448.021     540.677      30.279
  P      446.624     538.446      29.162
  C      445.864     539.193      26.809
  O      445.514     539.068      28.182
  C      445.229     540.445      26.216
  O      445.500     541.588      27.056
  C      445.740     540.800      24.823
  O      445.085     540.012      23.841
  C      445.370     542.273      24.758
  O      443.954     542.405      24.512
  C      445.700     542.739      26.188
  N      448.709     546.823      26.383
  C      447.352     546.728      26.114
  N      446.720     547.881      25.809
  N      446.687     545.602      26.117
  C      447.465     544.522      26.371
  C      448.819     544.492      26.637
  C      449.529     545.742      26.683
  O      450.731     545.874      26.934
  N      449.268     543.198      26.773
  C      448.187     542.458      26.628
  N      447.067     543.214      26.368
  O      446.546     536.954      29.291
  O      448.006     538.928      28.519
  H      443.502     541.862      25.185
  H      448.741     538.346      28.783
  H      449.162     547.723      26.346
  H      448.157     541.377      26.713
  H      445.032     543.538      26.533
  H      445.886     542.814      23.969
  H      447.226     548.705      25.512
  H      446.833     540.714      24.755
  H      445.737     547.823      25.557
  H      444.142     540.299      26.213
  H      445.498     538.297      26.294
  H      446.956     539.242      26.695
  P      445.620     539.969      22.322
  C      446.470     541.985      20.949
  O      445.441     541.466      21.776
  O      444.995     538.921      21.469
  O      447.204     539.832      22.455
  H      447.521     538.896      22.516
  H      446.224     542.985      20.658
  H      446.568     541.374      20.076
  H      447.394     541.988      21.489

 6  7  8  9  10  11  12  13  14  15  26  29  33  34 0
 6-311+G(2d,p)
 ****
 36  38  39  40  41 0
 6-311+G(2d,p)
 ****
 1  2  3  4  5  16  17  18  19  20  21  22  23  24  25 0
 3-21G
 ****
 27  28  30  31  32  35  37  42  43  44  45  46  47 0
 3-21G
 ****
 48  49 0
 3-21G
 ****


