%nproc=1
%NoSave
%Mem=1900MB
#P OB98/GEN NMR

erre ene a

0 1
  C     -116.485     117.671     593.618
  O     -117.506     117.046     594.358
  H     -116.893     117.974     592.643
  H     -115.647     116.992     593.450
  H     -116.136     118.577     594.137
  P     -117.148     116.452     595.807
  C     -118.864     117.931     597.055
  O     -117.487     117.595     596.876
  C     -119.414     117.234     598.302
  O     -118.656     117.712     599.452
  C     -120.900     117.556     598.540
  O     -121.707     116.388     598.702
  C     -120.869     118.549     599.704
  O     -122.034     118.573     600.500
  C     -119.592     118.159     600.464
  N     -119.006     119.238     601.251
  C     -119.502     119.423     602.544
  O     -120.364     118.726     603.074
  N     -118.944     120.458     603.230
  C     -117.974     121.320     602.787
  O     -117.509     122.221     603.468
  C     -117.521     121.087     601.410
  C     -118.039     120.080     600.716
  O     -115.791     115.849     595.940
  O     -118.300     115.367     596.072
  H     -122.771     118.869     599.917
  H     -117.941     114.465     595.919
  H     -119.277     120.587     604.187
  H     -116.762     121.759     601.019
  H     -117.733     119.880     599.691
  H     -119.781     117.311     601.129
  H     -120.731     119.558     599.283
  H     -121.343     118.047     597.670
  H     -119.246     116.153     598.213
  H     -119.405     117.597     596.164
  H     -118.967     119.016     597.160
  P     -123.024     116.059     597.853
  C     -122.110     115.381     595.483
  O     -122.711     116.372     596.311
  O     -124.303     116.604     598.406
  O     -123.107     114.460     597.893
  H     -124.068     114.229     597.891
  H     -121.981     115.772     594.495
  H     -122.741     114.518     595.445
  H     -121.157     115.109     595.887

 6  7  8  9  10  11  12  13  14  15  16  26  31  32  33  34  35 0
 6-311+G(2d,p)
 ****
 36  37 0
 6-311+G(2d,p)
 ****
 1  2  3  4  5  17  18  19  20  21  22  23  24  25 0
 3-21G
 ****
 27  28  29  30  38  39  40  41  42  43  44  45 0
 3-21G
 ****


