%nproc=1
%NoSave
%Mem=1900MB
#P OB98/GEN NMR

erre ene a

0 1
  C     -222.909     518.650     -81.507
  O     -223.057     519.904     -82.137
  H     -223.896     518.295     -81.195
  H     -222.277     518.748     -80.620
  H     -222.476     517.920     -82.197
  P     -221.751     520.544     -82.821
  C     -221.773     522.556     -81.176
  O     -221.047     521.454     -81.700
  C     -220.897     523.376     -80.229
  O     -220.655     522.601     -79.028
  C     -219.534     523.752     -80.830
  O     -219.198     525.075     -80.401
  C     -218.575     522.758     -80.194
  O     -217.233     523.243     -80.143
  C     -219.229     522.531     -78.824
  N     -218.827     521.248     -78.247
  C     -217.614     521.226     -77.552
  O     -216.933     522.252     -77.455
  N     -217.170     520.037     -77.033
  C     -217.833     518.949     -77.266
  N     -217.323     517.797     -76.748
  C     -219.083     518.914     -78.051
  C     -219.521     520.086     -78.498
  O     -222.360     521.620     -83.836
  O     -220.843     519.575     -83.495
  H     -216.907     523.342     -81.064
  H     -221.794     521.721     -84.625
  H     -219.586     517.973     -78.238
  H     -220.426     520.161     -79.090
  H     -218.954     523.331     -78.126
  H     -218.576     521.826     -80.773
  H     -219.513     523.705     -81.921
  H     -221.449     524.272     -79.931
  H     -216.456     517.859     -76.227
  H     -222.637     522.179     -80.623
  H     -217.731     516.886     -76.903
  H     -222.133     523.181     -82.001
  P     -219.719     526.286     -81.321
  C     -217.745     526.106     -83.002
  O     -219.154     526.065     -82.803
  O     -218.894     527.542     -80.778
  O     -221.194     526.509     -81.229
  H     -219.485     528.142     -80.282
  H     -217.526     525.942     -84.036
  H     -217.279     525.343     -82.414
  H     -217.371     527.063     -82.705

 6  7  8  9  10  11  12  13  14  15  16  26  30  31  32  33  35 0
 6-311+G(2d,p)
 ****
 37  38 0
 6-311+G(2d,p)
 ****
 1  2  3  4  5  17  18  19  20  21  22  23  24  25 0
 3-21G
 ****
 27  28  29  34  36  39  40  41  42  43  44  45  46 0
 3-21G
 ****


