%nproc=1
%NoSave
%Mem=1900MB
#P OB98/GEN NMR

erre ene a

0 1
  C      174.294     414.910     265.127
  O      175.410     415.771     265.295
  P      176.805     415.093     265.736
  C      176.819     414.467     268.261
  O      177.038     415.472     267.278
  C      176.680     415.078     269.661
  O      176.281     414.037     270.594
  C      177.982     415.705     270.203
  O      177.590     416.840     270.988
  C      178.531     414.584     271.082
  O      179.515     415.011     272.011
  C      177.238     414.057     271.680
  N      179.005     411.386     275.678
  C      178.949     412.722     275.440
  N      178.447     413.366     274.348
  C      177.970     412.478     273.458
  C      177.977     411.082     273.552
  C      178.524     410.540     274.732
  N      178.591     409.178     274.969
  N      177.415     410.518     272.430
  C      177.088     411.536     271.665
  N      177.377     412.729     272.246
  O      177.895     415.990     264.971
  O      176.938     413.640     265.398
  H      180.257     415.419     271.537
  H      178.628     415.451     264.635
  H      179.347     413.354     276.231
  H      176.647     411.458     270.678
  H      176.833     414.724     272.459
  H      179.003     413.826     270.442
  H      178.678     416.033     269.424
  H      175.884     415.823     269.639
  H      177.670     413.777     268.268
  H      179.179     408.888     275.737
  H      178.423     408.567     274.177
  H      175.928     413.880     267.996
  P      177.837     418.308     270.405
  C      179.277     418.751     272.496
  O      178.188     419.202     271.702
  O      176.336     418.773     270.091
  O      178.775     418.406     269.228
  H      175.750     418.638     270.861
  H      179.456     419.486     273.272
  H      180.171     418.637     271.881
  H      179.019     417.795     272.970
  H      173.440     415.485     264.836
  H      174.088     414.408     266.050
  H      174.512     414.187     264.369

 3  4  5  6  7  8  9  10  11  12  22  25  29  30  31  32 0
 6-311+G(2d,p)
 ****
 33  36  37 0
 6-311+G(2d,p)
 ****
 1  2  13  14  15  16  17  18  19  20  21  23  24  26 0
 3-21G
 ****
 27  28  34  35  38  39  40  41  42  43  44  45  46  47  48 0
 3-21G
 ****


