%nproc=1
%NoSave
%Mem=1900MB
#P OB98/GEN NMR

erre ene a

0 1
  C     -520.301    -276.557     192.355
  O     -521.334    -276.287     191.435
  H     -519.360    -276.647     191.806
  H     -520.503    -277.502     192.867
  H     -520.200    -275.755     193.092
  P     -522.704    -275.662     191.977
  C     -524.390    -277.402     191.081
  O     -523.738    -276.867     192.229
  C     -525.606    -278.246     191.465
  O     -525.189    -279.349     192.298
  C     -526.645    -277.453     192.266
  O     -527.583    -276.746     191.477
  C     -527.323    -278.555     193.075
  O     -528.422    -279.133     192.349
  C     -526.210    -279.587     193.279
  N     -524.992    -282.152     197.530
  C     -525.741    -282.575     196.448
  N     -526.254    -283.821     196.532
  N     -525.971    -281.830     195.399
  C     -525.476    -280.576     195.501
  C     -524.736    -280.035     196.534
  C     -524.424    -280.890     197.659
  O     -523.753    -280.568     198.633
  N     -524.442    -278.712     196.304
  C     -525.076    -278.434     195.186
  N     -525.648    -279.547     194.621
  O     -523.324    -274.943     190.684
  O     -522.568    -274.688     193.110
  H     -529.112    -278.449     192.255
  H     -523.839    -274.162     190.962
  H     -524.824    -282.778     198.297
  H     -525.113    -277.458     194.716
  H     -526.579    -280.606     193.116
  H     -527.738    -278.151     194.006
  H     -526.179    -284.402     197.352
  H     -526.153    -276.769     192.967
  H     -526.961    -284.100     195.848
  H     -526.045    -278.679     190.557
  H     -523.651    -278.021     190.568
  H     -524.679    -276.601     190.398
  P     -528.403    -275.516     192.080
  C     -530.634    -276.820     191.594
  O     -529.865    -276.030     192.473
  O     -528.669    -274.594     190.798
  O     -527.725    -274.766     193.177
  H     -528.025    -273.865     190.759
  H     -531.573    -277.052     192.052
  H     -530.109    -277.727     191.378
  H     -530.804    -276.281     190.686

 6  7  8  9  10  11  12  13  14  15  26  29  33  34 0
 6-311+G(2d,p)
 ****
 36  38  39  40  41 0
 6-311+G(2d,p)
 ****
 1  2  3  4  5  16  17  18  19  20  21  22  23  24  25 0
 3-21G
 ****
 27  28  30  31  32  35  37  42  43  44  45  46  47 0
 3-21G
 ****
 48  49 0
 3-21G
 ****


