%nproc=1
%NoSave
%Mem=1900MB
#P OB98/GEN NMR

erre ene a

0 1
  C      687.623     367.159      88.373
  O      686.517     366.292      88.287
  H      687.337     368.146      87.998
  H      688.451     366.781      87.764
  H      687.950     367.270      89.416
  P      686.622     364.833      88.932
  C      687.935     362.662      88.432
  O      687.629     363.981      88.000
  C      688.891     362.009      87.441
  O      690.097     362.810      87.300
  C      689.365     360.616      87.864
  O      688.358     359.639      87.676
  C      690.602     360.459      86.993
  O      690.243     360.029      85.675
  C      691.168     361.896      86.955
  N      692.305     362.052      87.873
  C      693.394     361.224      87.643
  O      693.434     360.397      86.737
  N      694.417     361.327      88.538
  C      694.402     362.062      89.695
  O      695.237     361.939      90.586
  C      693.261     362.969      89.850
  C      692.269     362.930      88.951
  O      685.326     364.163      89.242
  O      687.487     365.071      90.258
  H      686.890     365.082      91.036
  H      689.543     360.647      85.370
  H      695.201     360.693      88.407
  H      693.236     363.637      90.709
  H      691.397     363.564      89.063
  H      691.494     362.163      85.945
  H      691.295     359.724      87.414
  H      689.681     360.647      88.918
  H      688.399     361.963      86.459
  H      687.004     362.086      88.485
  H      688.383     362.711      89.430
  P      688.483     358.212      88.399
  C      690.305     356.412      88.584
  O      689.750     357.444      87.775
  O      687.225     357.408      88.435
  O      688.968     358.565      89.875
  H      688.390     358.089      90.526
  H      691.137     355.970      88.077
  H      689.562     355.665      88.768
  H      690.633     356.826      89.515

 6  7  8  9  10  11  12  13  14  15  16  27  31  32  33  34  35 0
 6-311+G(2d,p)
 ****
 36  37 0
 6-311+G(2d,p)
 ****
 1  2  3  4  5  17  18  19  20  21  22  23  24  25 0
 3-21G
 ****
 26  28  29  30  38  39  40  41  42  43  44  45 0
 3-21G
 ****


