%nproc=1
%NoSave
%Mem=1900MB
#P OB98/GEN NMR

erre ene a

0 1
  C      524.863    -272.269    1114.240
  O      525.240    -273.649    1114.302
  P      524.274    -274.696    1113.552
  C      525.696    -275.092    1111.407
  O      524.525    -274.524    1111.982
  C      525.388    -276.373    1110.651
  O      524.347    -276.156    1109.676
  C      526.550    -276.957    1109.873
  O      527.437    -277.679    1110.718
  C      525.830    -277.894    1108.922
  O      525.554    -279.152    1109.580
  C      524.541    -277.133    1108.622
  N      524.724    -277.663    1103.576
  C      524.737    -278.630    1104.581
  N      524.778    -279.923    1104.161
  N      524.709    -278.353    1105.850
  C      524.642    -277.024    1106.113
  C      524.638    -275.984    1105.215
  C      524.697    -276.295    1103.804
  O      524.722    -275.487    1102.872
  N      524.553    -274.769    1105.847
  C      524.488    -275.087    1107.124
  N      524.558    -276.443    1107.341
  O      522.817    -274.055    1113.763
  O      524.353    -276.082    1114.070
  H      525.107    -278.929    1110.415
  H      522.148    -274.750    1113.746
  H      524.753    -277.935    1102.608
  H      524.384    -274.370    1107.940
  H      523.661    -277.786    1108.642
  H      526.439    -278.140    1108.029
  H      524.720    -280.225    1103.196
  H      527.082    -276.177    1109.309
  H      524.735    -280.644    1104.868
  H      525.001    -277.099    1111.395
  H      526.422    -275.307    1112.203
  H      526.158    -274.342    1110.743
  P      528.850    -277.003    1111.064
  C      528.095    -275.543    1113.089
  O      528.497    -275.586    1111.736
  O      529.420    -276.609    1109.625
  O      529.784    -277.870    1111.836
  H      530.405    -276.616    1109.631
  H      528.703    -276.216    1113.690
  H      527.032    -275.862    1113.175
  H      528.186    -274.531    1113.466
  H      525.580    -271.679    1114.772
  H      523.897    -272.143    1114.683
  H      524.830    -271.954    1113.218

 3  4  5  6  7  8  9  10  11  12  23  26  30  31  33  0
 6-311+G(2d,p)
 ****
 35  36  37  38 0
 6-311+G(2d,p)
 ****
 1  2  13  14  15  16  17  18  19  20  21  22  24  25  27  28  29 0
 3-21G
 ****
 32  34  39  40  41  42  43  44  45  46  47  48  49 0
 3-21G
 ****


