%nproc=1
%NoSave
%Mem=1900MB
#P OB98/GEN NMR

erre ene a

0 1
  C      130.419    1218.218    -214.922
  O      130.989    1218.942    -216.008
  P      130.561    1218.620    -217.507
  C      129.255    1220.789    -218.022
  O      130.383    1219.990    -218.337
  C      129.668    1222.266    -217.938
  O      130.360    1222.548    -216.707
  C      130.651    1222.674    -219.034
  O      130.149    1222.715    -220.363
  C      131.264    1223.923    -218.472
  O      130.434    1225.064    -218.730
  C      131.299    1223.612    -216.964
  N      132.644    1223.259    -216.462
  C      133.478    1224.335    -216.160
  O      133.137    1225.511    -216.319
  N      134.728    1224.018    -215.706
  C      135.217    1222.727    -215.560
  O      136.360    1222.498    -215.175
  C      134.296    1221.670    -215.929
  C      133.062    1221.966    -216.369
  O      129.431    1217.638    -217.635
  O      131.909    1218.002    -218.131
  H      130.836    1225.822    -218.235
  H      131.653    1217.241    -218.688
  H      135.330    1224.783    -215.474
  H      134.656    1220.639    -215.827
  H      132.372    1221.169    -216.607
  H      130.937    1224.477    -216.371
  H      132.241    1224.135    -218.914
  H      131.459    1221.906    -219.064
  H      128.759    1222.881    -217.958
  H      128.793    1220.457    -217.089
  H      128.486    1220.624    -218.799
  P      131.103    1222.820    -221.651
  C      130.416    1220.588    -222.799
  O      130.396    1222.015    -222.860
  O      132.570    1222.608    -221.444
  O      130.840    1224.338    -222.113
  H      131.682    1224.684    -222.488
  H      129.933    1220.198    -223.694
  H      129.846    1220.242    -221.915
  H      131.422    1220.218    -222.779
  H      130.829    1218.576    -214.001
  H      130.642    1217.177    -215.031
  H      129.358    1218.357    -214.918

 3  4  5  6  7  8  9  10  11  12  13  23  28  29  30  31  32 0
 6-311+G(2d,p)
 ****
 33  34 0
 6-311+G(2d,p)
 ****
 1  2  14  15  16  17  18  19  20  21  22  24  25  26  27 0
 3-21G
 ****
 35  36  37  38  39  40  41  42  43  44  45 0
 3-21G
 ****


