%nproc=1
%NoSave
%Mem=1900MB
#P OB98/GEN NMR

erre ene a

0 1
  C     -645.350     268.956     320.698
  O     -644.834     269.081     322.025
  P     -643.375     269.724     322.194
  C     -643.907     270.266     324.703
  O     -643.046     269.641     323.761
  C     -644.656     269.218     325.524
  O     -645.425     268.349     324.655
  C     -643.742     268.289     326.317
  O     -643.206     268.937     327.453
  C     -644.700     267.144     326.620
  O     -645.545     267.480     327.737
  C     -645.542     267.079     325.332
  N     -645.169     265.974     324.451
  C     -646.072     264.910     324.403
  O     -647.108     264.869     325.070
  N     -645.730     263.875     323.580
  C     -644.590     263.788     322.836
  O     -644.338     262.838     322.096
  C     -643.651     264.914     322.968
  C     -643.984     265.943     323.754
  O     -643.684     271.266     321.933
  O     -642.359     269.111     321.287
  H     -644.556     271.546     322.265
  H     -645.936     266.640     328.051
  H     -646.377     263.100     323.514
  H     -642.721     264.868     322.411
  H     -643.305     266.785     323.873
  H     -646.610     266.969     325.580
  H     -644.176     266.213     326.871
  H     -642.931     267.924     325.678
  H     -645.348     269.734     326.194
  H     -644.637     270.900     324.182
  H     -643.311     270.918     325.350
  P     -641.707     269.503     327.322
  C     -641.892     270.321     329.804
  O     -641.144     269.636     328.821
  O     -641.981     271.008     326.867
  O     -640.852     268.717     326.385
  H     -642.687     271.440     327.373
  H     -641.539     270.013     330.795
  H     -642.959     270.080     329.731
  H     -641.750     271.401     329.695
  H     -646.324     268.515     320.734
  H     -644.699     268.335     320.119
  H     -645.414     269.924     320.247

 3  4  5  6  7  8  9  10  11  12  13  24  28  29  30  31  32 0
 6-311+G(2d,p)
 ****
 33  34 0
 6-311+G(2d,p)
 ****
 1  2  14  15  16  17  18  19  20  21  22  23  25  26  27 0
 3-21G
 ****
 35  36  37  38  39  40  41  42  43  44  45 0
 3-21G
 ****


