%nproc=1
%NoSave
%Mem=1900MB
#P OB98/GEN NMR

erre ene a

0 1
  C     -293.932    -318.157     288.578
  O     -293.250    -317.962     289.806
  P     -293.173    -319.208     290.820
  C     -290.584    -319.359     290.591
  O     -291.840    -320.017     290.446
  C     -289.765    -320.025     291.694
  O     -289.598    -321.434     291.429
  C     -288.356    -319.473     291.843
  O     -288.320    -318.267     292.594
  C     -287.680    -320.594     292.613
  O     -288.009    -320.503     294.010
  C     -288.326    -321.844     291.992
  N     -283.712    -323.594     290.884
  C     -284.247    -323.223     292.105
  N     -283.413    -323.280     293.166
  N     -285.485    -322.846     292.267
  C     -286.201    -322.836     291.114
  C     -285.778    -323.182     289.846
  C     -284.400    -323.585     289.680
  O     -283.855    -323.872     288.619
  N     -286.790    -323.051     288.934
  C     -287.817    -322.635     289.637
  N     -287.502    -322.443     290.957
  O     -294.343    -320.174     290.310
  O     -293.330    -318.851     292.260
  H     -287.569    -319.694     294.343
  H     -294.567    -320.824     291.003
  H     -282.744    -323.876     290.811
  H     -288.806    -322.440     289.234
  H     -288.539    -322.611     292.744
  H     -286.591    -320.566     292.538
  H     -282.433    -323.501     293.096
  H     -287.869    -319.358     290.862
  H     -283.765    -322.953     294.061
  H     -290.318    -319.925     292.637
  H     -290.757    -318.311     290.844
  H     -290.044    -319.400     289.638
  P     -287.994    -316.918     291.780
  C     -289.846    -315.413     292.802
  O     -289.387    -316.133     291.678
  O     -287.738    -317.450     290.293
  O     -286.834    -316.143     292.316
  H     -287.147    -316.836     289.812
  H     -290.647    -314.733     292.483
  H     -289.042    -314.812     293.240
  H     -290.247    -316.099     293.552
  H     -293.905    -317.252     288.007
  H     -294.949    -318.425     288.774
  H     -293.456    -318.941     288.026

 3  4  5  6  7  8  9  10  11  12  23  26  30  31 0
 6-311+G(2d,p)
 ****
 33  35  36  37  38 0
 6-311+G(2d,p)
 ****
 1  2  13  14  15  16  17  18  19  20  21  22  24  25 0
 3-21G
 ****
 27  28  29  32  34  39  40  41  42  43  44  45  46  47  48  49 0
 3-21G
 ****


