%nproc=1
%NoSave
%Mem=1900MB
#P OB98/GEN NMR

erre ene a

0 1
  C       58.747      -1.558     -44.312
  O       57.885      -1.252     -43.235
  H       58.313      -1.211     -45.254
  H       59.702      -1.048     -44.157
  H       58.925      -2.637     -44.359
  P       56.408      -1.879     -43.290
  C       57.225      -4.231     -42.539
  O       56.627      -3.447     -43.561
  C       56.258      -5.336     -42.123
  O       55.846      -6.099     -43.280
  C       56.861      -6.348     -41.154
  O       56.835      -5.895     -39.811
  C       55.923      -7.526     -41.356
  O       54.684      -7.286     -40.666
  C       55.703      -7.488     -42.876
  N       56.231     -11.448     -46.081
  C       55.138     -10.844     -45.564
  N       55.081      -9.783     -44.735
  C       56.315      -9.333     -44.452
  C       57.521      -9.840     -44.908
  C       57.453     -10.956     -45.760
  N       58.564     -11.593     -46.263
  N       58.580      -9.124     -44.383
  C       58.018      -8.193     -43.638
  N       56.652      -8.297     -43.622
  O       55.822      -1.352     -44.684
  O       55.523      -1.569     -42.130
  H       54.032      -7.923     -41.019
  H       54.856      -1.487     -44.719
  H       54.183     -11.275     -45.852
  H       58.554      -7.431     -43.085
  H       54.698      -7.818     -43.166
  H       56.332      -8.462     -40.968
  H       57.873      -6.641     -41.455
  H       55.361      -4.868     -41.696
  H       57.445      -3.591     -41.679
  H       58.417     -12.469     -46.739
  H       59.474     -11.328     -45.915
  H       58.156      -4.668     -42.913
  P       57.899      -6.537     -38.793
  C       59.896      -5.095     -39.622
  O       59.337      -6.398     -39.494
  O       57.591      -8.104     -38.892
  O       57.805      -6.030     -37.392
  H       57.764      -8.548     -38.043
  H       60.849      -5.161     -40.105
  H       60.018      -4.662     -38.651
  H       59.242      -4.482     -40.206

 6  7  8  9  10  11  12  13  14  15  25  28  32  33  34  35 0
 6-311+G(2d,p)
 ****
 36  39  40 0
 6-311+G(2d,p)
 ****
 1  2  3  4  5  16  17  18  19  20  21  22  23  24 0
 3-21G
 ****
 26  27  29  30  31  37  38  41  42  43  44  45  46  47 0
 3-21G
 ****
 48 0
 3-21G
 ****


