%nproc=1
%NoSave
%Mem=1900MB
#P OB98/GEN NMR

erre ene a

0 1
  C     -898.220     450.610     365.001
  O     -897.330     450.901     363.903
  P     -897.830     450.896     362.387
  C     -897.760     448.338     362.207
  O     -898.570     449.514     362.040
  C     -898.550     447.031     361.929
  O     -899.240     447.067     360.636
  C     -897.690     445.747     361.931
  O     -898.570     444.710     362.428
  C     -897.400     445.558     360.478
  O     -896.990     444.230     360.141
  C     -898.740     445.976     359.868
  N     -897.220     444.399     355.200
  C     -897.400     443.738     356.374
  N     -897.830     444.208     357.544
  C     -898.160     445.532     357.471
  C     -898.040     446.337     356.322
  C     -897.530     445.708     355.170
  N     -897.300     446.400     354.005
  N     -898.410     447.635     356.634
  C     -898.760     447.574     357.925
  N     -898.610     446.357     358.448
  O     -896.790     451.300     361.391
  O     -899.030     451.978     362.364
  H     -897.600     443.610     360.560
  H     -898.940     452.554     361.593
  H     -897.150     442.679     356.334
  H     -899.090     448.448     358.465
  H     -899.480     445.149     359.925
  H     -896.580     446.236     360.163
  H     -896.810     445.831     362.576
  H     -899.360     446.976     362.671
  H     -897.370     448.308     363.197
  H     -896.860     445.909     353.235
  H     -897.420     447.405     353.979
  H     -896.920     448.399     361.480
  P     -898.690     444.392     363.990
  C     -896.230     443.807     364.304
  O     -897.250     444.701     364.648
  O     -899.250     443.044     364.312
  O     -899.630     445.563     364.570
  H     -900.000     445.290     365.434
  H     -896.340     442.860     364.859
  H     -895.270     444.258     364.568
  H     -896.230     443.597     363.214
  H     -897.680     450.669     365.923
  H     -898.620     449.625     364.884
  H     -899.020     451.321     365.010

 3  4  5  6  7  8  9  10  11  12  22  25  29  30  31  32 0
 6-311+G(2d,p)
 ****
 33  36  37 0
 6-311+G(2d,p)
 ****
 1  2  13  14  15  16  17  18  19  20  21  23  24  26 0
 3-21G
 ****
 27  28  34  35  38  39  40  41  42  43  44  45  46  47  48 0
 3-21G
 ****


