%nproc=1
%NoSave
%Mem=1900MB
#P OB98/GEN NMR

erre ene a

0 1
  C     -164.706    -274.544    -353.755
  O     -165.740    -273.691    -353.303
  H     -163.994    -273.955    -354.340
  H     -165.120    -275.331    -354.392
  H     -164.185    -274.990    -352.905
  P     -166.922    -274.387    -352.471
  C     -165.522    -274.417    -350.290
  O     -166.220    -275.178    -351.264
  C     -164.740    -275.335    -349.354
  O     -163.913    -274.565    -348.457
  C     -165.610    -276.235    -348.486
  O     -165.999    -277.401    -349.192
  C     -164.663    -276.535    -347.331
  O     -163.723    -277.570    -347.688
  C     -163.947    -275.190    -347.145
  N     -163.283    -272.758    -342.771
  C     -162.465    -273.656    -343.423
  N     -161.304    -273.982    -342.807
  N     -162.757    -274.204    -344.575
  C     -163.970    -273.836    -345.045
  C     -164.875    -272.956    -344.494
  C     -164.513    -272.317    -343.246
  O     -165.156    -271.451    -342.660
  N     -165.989    -272.827    -345.282
  C     -165.774    -273.651    -346.290
  N     -164.563    -274.290    -346.189
  O     -167.420    -275.561    -353.441
  O     -168.049    -273.491    -352.088
  H     -163.413    -277.420    -348.598
  H     -168.390    -275.638    -353.368
  H     -162.993    -272.347    -341.902
  H     -166.452    -273.813    -347.116
  H     -162.907    -275.322    -346.822
  H     -165.202    -276.898    -346.454
  H     -161.163    -273.830    -341.819
  H     -166.485    -275.691    -348.105
  H     -160.742    -274.696    -343.252
  H     -164.064    -275.937    -349.974
  H     -166.246    -273.836    -349.708
  H     -164.836    -273.730    -350.793
  P     -167.253    -278.235    -348.645
  C     -168.891    -277.359    -350.464
  O     -168.591    -277.456    -349.077
  O     -167.177    -278.000    -347.064
  O     -167.226    -279.691    -348.973
  H     -166.847    -278.807    -346.625
  H     -169.804    -276.817    -350.594
  H     -168.997    -278.341    -350.876
  H     -168.097    -276.846    -350.966

 6  7  8  9  10  11  12  13  14  15  26  29  33  34 0
 6-311+G(2d,p)
 ****
 36  38  39  40  41 0
 6-311+G(2d,p)
 ****
 1  2  3  4  5  16  17  18  19  20  21  22  23  24  25 0
 3-21G
 ****
 27  28  30  31  32  35  37  42  43  44  45  46  47 0
 3-21G
 ****
 48  49 0
 3-21G
 ****


