%nproc=1
%NoSave
%Mem=1900MB
#P OB98/GEN NMR

erre ene a

0 1
  C     -547.786    -161.172     102.098
  O     -546.624    -160.418     102.398
  P     -546.758    -159.242     103.481
  C     -544.820    -159.895     105.101
  O     -546.223    -159.817     104.878
  C     -544.374    -158.720     105.979
  O     -545.108    -158.715     107.218
  C     -542.903    -158.786     106.374
  O     -542.059    -158.345     105.316
  C     -542.872    -157.873     107.594
  O     -542.767    -156.496     107.203
  C     -544.248    -158.156     108.234
  N     -544.155    -159.018     109.411
  C     -543.622    -158.439     110.552
  O     -543.226    -157.268     110.587
  N     -543.517    -159.252     111.651
  C     -543.840    -160.583     111.700
  O     -543.667    -161.271     112.695
  C     -544.369    -161.151     110.451
  C     -544.497    -160.363     109.375
  O     -548.341    -159.109     103.707
  O     -546.149    -157.947     103.071
  H     -542.023    -156.441     106.573
  H     -548.574    -158.175     103.856
  H     -543.159    -158.847     112.495
  H     -544.631    -162.203     110.448
  H     -544.869    -160.761     108.440
  H     -544.714    -157.215     108.538
  H     -542.021    -158.091     108.249
  H     -542.637    -159.812     106.684
  H     -544.592    -157.789     105.444
  H     -544.298    -159.853     104.141
  H     -544.585    -160.849     105.584
  P     -540.687    -159.149     105.099
  C     -541.917    -160.799     103.478
  O     -541.128    -160.619     104.640
  O     -540.195    -159.308     106.616
  O     -539.734    -158.437     104.198
  H     -540.939    -159.392     107.235
  H     -541.656    -160.073     102.708
  H     -542.976    -160.685     103.741
  H     -541.742    -161.803     103.094
  H     -547.550    -161.915     101.366
  H     -548.544    -160.522     101.714
  H     -548.142    -161.648     102.988

 3  4  5  6  7  8  9  10  11  12  13  23  28  29  30  31  32 0
 6-311+G(2d,p)
 ****
 33  34 0
 6-311+G(2d,p)
 ****
 1  2  14  15  16  17  18  19  20  21  22  24  25  26 0
 3-21G
 ****
 27  35  36  37  38  39  40  41  42  43  44  45 0
 3-21G
 ****


