%nproc=1
%NoSave
%Mem=1900MB
#P OB98/GEN NMR

erre ene a

0 1
  C      735.939      68.120    -214.392
  O      737.247      68.566    -214.706
  P      738.126      69.457    -213.718
  C      737.950      71.801    -212.595
  O      737.348      70.844    -213.464
  C      737.667      73.251    -213.005
  O      738.198      73.482    -214.330
  C      736.157      73.489    -213.105
  O      735.406      73.796    -211.947
  C      735.983      74.469    -214.263
  O      735.835      75.818    -213.811
  C      737.277      74.316    -215.058
  N      737.455      75.143    -220.062
  C      737.990      75.892    -219.037
  N      738.477      77.111    -219.384
  N      738.035      75.494    -217.788
  C      737.422      74.298    -217.585
  C      736.866      73.461    -218.522
  C      736.859      73.896    -219.895
  O      736.320      73.302    -220.828
  N      736.271      72.365    -217.940
  C      736.444      72.555    -216.644
  N      737.094      73.737    -216.381
  O      739.594      69.505    -213.977
  O      737.910      68.686    -212.316
  H      736.656      76.055    -213.325
  H      738.738      68.766    -211.803
  H      737.374      75.543    -220.995
  H      736.077      71.904    -215.866
  H      737.769      75.285    -215.193
  H      735.077      74.228    -214.835
  H      738.328      77.508    -220.295
  H      735.714      72.549    -213.469
  H      738.724      77.749    -218.634
  H      738.185      73.956    -212.351
  H      739.027      71.602    -212.579
  H      737.581      71.642    -211.572
  P      733.994      73.170    -211.539
  C      731.614      73.039    -212.471
  O      732.937      73.510    -212.687
  O      733.501      74.086    -210.316
  O      734.032      71.734    -211.122
  H      732.846      73.592    -209.780
  H      731.070      73.057    -213.420
  H      731.105      73.701    -211.757
  H      731.617      72.021    -212.082
  H      735.554      67.542    -215.206
  H      735.305      68.965    -214.224
  H      735.970      67.516    -213.509

 3  4  5  6  7  8  9  10  11  12  23  26  30  31 0
 6-311+G(2d,p)
 ****
 33  35  36  37  38 0
 6-311+G(2d,p)
 ****
 1  2  13  14  15  16  17  18  19  20  21  22  24  25 0
 3-21G
 ****
 27  28  29  32  34  39  40  41  42  43  44  45  46  47  48  49 0
 3-21G
 ****


