%nproc=1
%NoSave
%Mem=1900MB
#P OB98/GEN NMR

erre ene a

0 1
  C       75.781      -2.285     -52.211
  O       74.696      -1.489     -52.642
  H       76.707      -1.950     -52.685
  H       75.885      -2.181     -51.127
  H       75.599      -3.336     -52.449
  P       74.364      -1.506     -54.212
  C       75.815      -1.017     -56.312
  O       75.603      -0.778     -54.927
  C       77.265      -0.713     -56.668
  O       78.156      -1.390     -55.754
  C       77.679      -1.171     -58.062
  O       77.279      -0.257     -59.068
  C       79.189      -1.196     -57.910
  O       79.707       0.145     -57.975
  C       79.351      -1.762     -56.493
  N       82.247      -5.703     -57.995
  C       82.351      -4.375     -58.209
  N       81.536      -3.391     -57.778
  C       80.524      -3.895     -57.055
  C       80.282      -5.226     -56.761
  C       81.207      -6.159     -57.260
  N       81.095      -7.517     -57.057
  N       79.122      -5.360     -56.022
  C       78.693      -4.126     -55.848
  N       79.500      -3.206     -56.462
  O       73.182      -0.437     -54.359
  O       74.007      -2.836     -54.785
  H       80.578       0.130     -57.536
  H       72.689      -0.594     -55.186
  H       83.203      -4.061     -58.807
  H       77.810      -3.849     -55.288
  H       80.211      -1.334     -55.965
  H       79.689      -1.771     -58.692
  H       77.322      -2.186     -58.276
  H       77.425       0.367     -56.550
  H       75.155      -0.367     -56.894
  H       81.699      -8.106     -57.608
  H       80.246      -7.871     -56.641
  H       75.578      -2.061     -56.537
  P       77.010      -0.847     -60.536
  C       78.303      -2.593     -61.966
  O       78.369      -1.577     -60.969
  O       76.978       0.460     -61.454
  O       75.765      -1.663     -60.663
  H       76.437       0.311     -62.252
  H       79.284      -2.982     -62.145
  H       77.913      -2.179     -62.872
  H       77.663      -3.382     -61.630

 6  7  8  9  10  11  12  13  14  15  25  28  32  33  34  35 0
 6-311+G(2d,p)
 ****
 36  39  40 0
 6-311+G(2d,p)
 ****
 1  2  3  4  5  16  17  18  19  20  21  22  23  24 0
 3-21G
 ****
 26  27  29  30  31  37  38  41  42  43  44  45  46  47 0
 3-21G
 ****
 48 0
 3-21G
 ****


