%nproc=1
%NoSave
%Mem=1900MB
#P OB98/GEN NMR

erre ene a

0 1
  C      414.110     849.948     486.872
  O      415.315     850.197     487.572
  H      413.362     849.593     487.581
  H      414.275     849.176     486.117
  H      413.747     850.864     486.401
  P      416.496     850.904     486.743
  C      418.318     849.151     487.442
  O      417.853     850.486     487.492
  C      419.423     848.932     488.482
  O      420.518     849.833     488.196
  C      418.976     849.187     489.921
  O      419.623     848.235     490.773
  C      419.496     850.582     490.218
  O      419.665     850.804     491.612
  C      420.781     850.621     489.375
  N      421.187     851.982     489.034
  C      422.304     852.489     489.704
  O      422.883     851.804     490.546
  N      422.711     853.775     489.435
  C      422.018     854.507     488.623
  N      422.469     855.778     488.413
  C      420.799     854.029     487.934
  C      420.454     852.770     488.173
  O      416.297     852.440     487.144
  O      416.461     850.633     485.276
  H      420.301     851.556     491.728
  H      416.087     852.579     488.079
  H      420.250     854.687     487.271
  H      419.577     852.332     487.710
  H      421.607     850.135     489.923
  H      418.778     851.330     489.846
  H      417.898     849.119     490.061
  H      419.820     847.915     488.364
  H      423.289     856.075     488.915
  H      418.707     848.918     486.451
  H      421.978     856.458     487.840
  H      417.469     848.489     487.644
  P      418.982     846.779     490.958
  C      420.653     845.777     492.640
  O      420.145     845.736     491.323
  O      418.048     846.346     489.878
  O      418.201     846.910     492.359
  H      417.361     846.417     492.281
  H      421.417     845.036     492.751
  H      419.862     845.580     493.334
  H      421.064     846.746     492.834

 6  7  8  9  10  11  12  13  14  15  16  26  30  31  32  33  35 0
 6-311+G(2d,p)
 ****
 37  38 0
 6-311+G(2d,p)
 ****
 1  2  3  4  5  17  18  19  20  21  22  23  24  25 0
 3-21G
 ****
 27  28  29  34  36  39  40  41  42  43  44  45  46 0
 3-21G
 ****


