%nproc=1
%NoSave
%Mem=1900MB
#P OB98/GEN NMR

erre ene a

0 1
  C      197.418    -458.874    -728.749
  O      198.636    -458.149    -728.683
  H      197.646    -459.946    -728.728
  H      196.892    -458.642    -729.691
  H      196.782    -458.621    -727.894
  P      198.512    -456.551    -728.772
  C      199.555    -456.149    -726.427
  O      199.683    -455.963    -727.823
  C      200.836    -455.726    -725.710
  O      201.937    -456.632    -726.018
  C      201.321    -454.312    -726.065
  O      200.644    -453.340    -725.292
  C      202.796    -454.418    -725.725
  O      203.017    -454.274    -724.303
  C      203.149    -455.854    -726.175
  N      207.008    -454.824    -729.267
  C      206.835    -454.517    -727.941
  N      207.808    -453.793    -727.344
  N      205.772    -454.864    -727.240
  C      204.837    -455.531    -727.980
  C      204.897    -455.896    -729.305
  C      206.103    -455.570    -730.038
  O      206.366    -455.881    -731.211
  N      203.774    -456.592    -729.702
  C      203.016    -456.591    -728.607
  N      203.624    -455.966    -727.541
  O      197.180    -456.240    -727.945
  O      198.442    -455.976    -730.153
  H      203.850    -454.711    -724.064
  H      196.704    -455.500    -728.384
  H      207.852    -454.565    -729.739
  H      202.043    -457.054    -728.546
  H      203.927    -456.306    -725.542
  H      203.373    -453.627    -726.219
  H      208.486    -453.264    -727.874
  H      201.200    -454.140    -727.143
  H      207.631    -453.498    -726.384
  H      200.657    -455.813    -724.616
  H      199.378    -457.231    -726.237
  H      198.708    -455.579    -726.040
  P      200.319    -451.932    -725.974
  C      198.528    -450.787    -724.464
  O      199.912    -450.885    -724.821
  O      198.920    -452.193    -726.731
  O      201.374    -451.458    -726.922
  H      199.084    -452.281    -727.708
  H      198.410    -450.057    -723.691
  H      198.182    -451.737    -724.114
  H      197.958    -450.494    -725.321

 6  7  8  9  10  11  12  13  14  15  26  29  33  34 0
 6-311+G(2d,p)
 ****
 36  38  39  40  41 0
 6-311+G(2d,p)
 ****
 1  2  3  4  5  16  17  18  19  20  21  22  23  24  25 0
 3-21G
 ****
 27  28  30  31  32  35  37  42  43  44  45  46  47 0
 3-21G
 ****
 48  49 0
 3-21G
 ****


