%nproc=1
%NoSave
%Mem=1900MB
#P OB98/GEN NMR

erre ene a

0 1
  C     -132.104     -35.192      75.430
  O     -132.976     -34.229      75.991
  H     -131.195     -35.235      76.038
  H     -131.833     -34.908      74.407
  H     -132.579     -36.177      75.437
  P     -134.366     -33.986      75.223
  C     -133.818     -31.450      75.214
  O     -134.148     -32.599      74.441
  C     -132.719     -30.643      74.530
  O     -131.535     -31.449      74.365
  C     -133.084     -30.127      73.143
  O     -133.829     -28.927      73.237
  C     -131.701     -29.884      72.548
  O     -131.196     -28.617      73.014
  C     -130.868     -31.035      73.145
  N     -128.098     -33.144      69.371
  C     -128.115     -31.895      69.878
  N     -128.912     -31.389      70.842
  C     -129.765     -32.323      71.299
  C     -129.868     -33.644      70.871
  C     -128.977     -34.050      69.862
  N     -128.969     -35.330      69.344
  N     -130.860     -34.309      71.566
  C     -131.301     -33.424      72.433
  N     -130.696     -32.197      72.290
  O     -135.596     -34.084      76.066
  O     -134.255     -35.067      74.047
  H     -131.040     -28.711      73.972
  H     -133.354     -35.092      73.689
  H     -127.391     -31.208      69.449
  H     -132.041     -33.619      73.201
  H     -129.859     -30.697      73.420
  H     -131.718     -29.844      71.460
  H     -133.602     -30.897      72.547
  H     -132.452     -29.804      75.195
  H     -133.489     -31.752      76.218
  H     -128.438     -35.475      68.498
  H     -129.711     -35.958      69.620
  H     -134.729     -30.845      75.319
  P     -135.323     -28.830      72.664
  C     -134.152     -27.849      70.590
  O     -135.151     -28.746      71.068
  O     -136.159     -27.761      73.283
  O     -135.927     -30.294      72.883
  H     -136.904     -30.269      72.812
  H     -134.129     -27.878      69.521
  H     -133.197     -28.140      70.975
  H     -134.380     -26.855      70.915

 6  7  8  9  10  11  12  13  14  15  25  28  32  33  34  35 0
 6-311+G(2d,p)
 ****
 36  39  40 0
 6-311+G(2d,p)
 ****
 1  2  3  4  5  16  17  18  19  20  21  22  23  24 0
 3-21G
 ****
 26  27  29  30  31  37  38  41  42  43  44  45  46  47 0
 3-21G
 ****
 48 0
 3-21G
 ****


