%nproc=1
%NoSave
%Mem=1900MB
#P OB98/GEN NMR

erre ene a

0 1
  C       88.180     -84.189      90.509
  O       88.283     -85.427      91.202
  P       87.432     -85.614      92.549
  C       85.408     -86.276      91.069
  O       85.882     -85.481      92.146
  C       84.194     -87.105      91.488
  O       83.726     -87.870      90.345
  C       84.464     -88.103      92.621
  O       83.262     -88.208      93.392
  C       84.694     -89.408      91.880
  O       84.496     -90.545      92.715
  C       83.685     -89.258      90.744
  N       82.134     -93.253      87.959
  C       81.575     -92.624      89.014
  N       82.048     -91.564      89.702
  C       83.229     -91.162      89.202
  C       83.936     -91.729      88.154
  C       83.338     -92.827      87.513
  N       83.901     -93.466      86.432
  N       85.122     -91.055      87.950
  C       85.132     -90.100      88.857
  N       83.997     -90.111      89.618
  O       87.730     -84.256      93.343
  O       87.785     -86.809      93.364
  H       83.592     -90.501      93.081
  H       88.269     -84.445      94.135
  H       80.617     -93.017      89.343
  H       85.928     -89.384      89.002
  H       82.660     -89.485      91.067
  H       85.721     -89.442      91.498
  H       85.307     -87.831      93.266
  H       83.386     -86.418      91.769
  H       86.205     -86.958      90.758
  H       83.349     -94.153      85.944
  H       84.700     -93.038      85.974
  H       85.151     -85.630      90.224
  P       83.394     -88.832      94.863
  C       83.438     -86.536      96.069
  O       84.128     -87.733      95.765
  O       84.497     -89.977      94.680
  O       82.115     -89.377      95.409
  H       84.357     -90.683      95.339
  H       83.736     -86.199      97.064
  H       82.351     -86.674      96.054
  H       83.709     -85.769      95.337
  H       88.800     -84.215      89.638
  H       88.499     -83.394      91.150
  H       87.163     -84.027      90.218

 3  4  5  6  7  8  9  10  11  12  22  25  29  30  31  32 0
 6-311+G(2d,p)
 ****
 33  36  37 0
 6-311+G(2d,p)
 ****
 1  2  13  14  15  16  17  18  19  20  21  23  24  26 0
 3-21G
 ****
 27  28  34  35  38  39  40  41  42  43  44  45  46  47  48 0
 3-21G
 ****


