%nproc=1
%NoSave
%Mem=1900MB
#P OB98/GEN NMR

erre ene a

0 1
  C      452.054     577.644     211.325
  O      453.181     577.719     212.191
  P      453.867     579.144     212.402
  C      455.762     578.885     210.638
  O      455.419     578.973     212.012
  C      457.281     578.986     210.444
  O      457.726     580.275     210.963
  C      458.092     577.893     211.150
  O      459.212     577.614     210.313
  C      458.521     578.600     212.428
  O      459.594     577.970     213.094
  C      458.790     579.999     211.886
  N      459.724     584.921     212.978
  C      459.697     584.240     211.805
  N      459.436     582.932     211.592
  C      459.172     582.318     212.760
  C      459.181     582.854     214.020
  C      459.468     584.236     214.120
  N      459.500     584.916     215.310
  N      458.870     581.899     214.977
  C      458.693     580.798     214.282
  N      458.839     580.993     212.935
  O      453.908     579.314     213.990
  O      453.168     580.296     211.730
  H      460.381     577.928     212.533
  H      453.719     580.229     214.253
  H      459.935     584.839     210.917
  H      458.471     579.836     214.713
  H      459.741     580.057     211.344
  H      457.675     578.611     213.125
  H      457.524     576.970     211.310
  H      457.489     578.986     209.361
  H      455.284     579.707     210.093
  H      459.917     585.838     215.301
  H      459.508     584.356     216.168
  H      455.381     577.947     210.224
  P      459.015     576.701     209.007
  C      460.671     574.944     209.864
  O      460.402     575.908     208.871
  O      459.148     577.793     207.844
  O      457.752     575.907     208.972
  H      459.960     578.333     207.944
  H      461.591     574.401     209.609
  H      459.846     574.213     209.934
  H      460.821     575.425     210.836
  H      451.704     576.634     211.282
  H      452.336     577.966     210.344
  H      451.275     578.276     211.698

 3  4  5  6  7  8  9  10  11  12  22  25  29  30  31  32 0
 6-311+G(2d,p)
 ****
 33  36  37 0
 6-311+G(2d,p)
 ****
 1  2  13  14  15  16  17  18  19  20  21  23  24  26 0
 3-21G
 ****
 27  28  34  35  38  39  40  41  42  43  44  45  46  47  48 0
 3-21G
 ****


