%nproc=1
%NoSave
%Mem=1900MB
#P OB98/GEN NMR

erre ene a

0 1
  C      -24.725      22.948      54.417
  O      -23.487      23.391      54.937
  H      -25.219      23.761      53.878
  H      -24.539      22.126      53.722
  H      -25.369      22.590      55.225
  P      -23.545      24.584      56.008
  C      -24.287      22.995      57.921
  O      -24.602      24.128      57.126
  C      -24.243      23.383      59.395
  O      -23.104      24.228      59.654
  C      -25.456      24.168      59.884
  O      -26.560      23.319      60.153
  C      -24.900      24.782      61.160
  O      -24.909      23.802      62.214
  C      -23.455      25.107      60.755
  N      -22.203      29.825      62.284
  C      -22.221      28.642      62.934
  N      -22.546      27.424      62.454
  C      -22.861      27.498      61.151
  C      -22.868      28.626      60.349
  C      -22.524      29.840      60.967
  N      -22.576      31.057      60.306
  N      -23.263      28.310      59.063
  C      -23.507      27.017      59.097
  N      -23.273      26.482      60.334
  O      -24.311      25.743      55.208
  O      -22.221      25.045      56.518
  H      -24.452      24.205      62.976
  H      -23.655      26.360      54.834
  H      -21.941      28.678      63.982
  H      -23.858      26.432      58.258
  H      -22.744      24.909      61.565
  H      -25.479      25.640      61.511
  H      -25.723      24.971      59.187
  H      -24.114      22.464      59.981
  H      -23.310      22.601      57.622
  H      -22.772      31.842      60.920
  H      -23.071      31.032      59.423
  H      -25.047      22.227      57.752
  P      -28.018      23.987      60.212
  C      -28.592      23.317      57.781
  O      -28.400      24.381      58.703
  O      -27.735      25.397      60.914
  O      -29.045      23.208      60.958
  H      -28.294      25.488      61.710
  H      -28.840      23.718      56.820
  H      -29.389      22.689      58.122
  H      -27.692      22.743      57.706

 6  7  8  9  10  11  12  13  14  15  25  28  32  33  34  35 0
 6-311+G(2d,p)
 ****
 36  39  40 0
 6-311+G(2d,p)
 ****
 1  2  3  4  5  16  17  18  19  20  21  22  23  24 0
 3-21G
 ****
 26  27  29  30  31  37  38  41  42  43  44  45  46  47  48 0
 3-21G
 ****


