%nproc=1
%NoSave
%Mem=1900MB
#P OB98/GEN NMR

erre ene a

0 1
  C     -162.886     256.609      12.306
  O     -162.729     256.374      10.920
  H     -163.827     256.156      12.637
  H     -162.924     257.682      12.507
  H     -162.063     256.152      12.864
  P     -161.431     257.009      10.221
  C     -160.494     254.670       9.583
  O     -160.281     255.890      10.281
  C     -159.432     254.508       8.498
  O     -158.133     254.319       9.108
  C     -159.642     253.295       7.602
  O     -160.636     253.519       6.619
  C     -158.250     253.134       7.007
  O     -158.058     253.995       5.874
  C     -157.336     253.549       8.183
  N     -156.712     252.399       8.824
  C     -155.492     251.990       8.285
  O     -154.961     252.549       7.325
  N     -154.923     250.887       8.867
  C     -155.454     250.151       9.881
  O     -154.927     249.126      10.302
  C     -156.739     250.639      10.422
  C     -157.304     251.718       9.873
  O     -160.951     258.108      11.280
  O     -161.666     257.596       8.868
  H     -161.210     258.997      10.981
  H     -158.066     254.909       6.223
  H     -154.050     250.572       8.479
  H     -157.187     250.074      11.234
  H     -158.255     252.079      10.241
  H     -156.538     254.216       7.826
  H     -158.076     252.113       6.663
  H     -159.872     252.407       8.210
  H     -159.403     255.431       7.899
  H     -161.485     254.683       9.116
  H     -160.457     253.838      10.298
  P     -161.346     252.243       5.946
  C     -163.253     252.432       7.749
  O     -162.320     251.622       7.063
  O     -160.127     251.212       5.872
  O     -162.006     252.539       4.642
  H     -159.519     251.283       6.630
  H     -163.801     251.833       8.446
  H     -163.930     252.870       7.046
  H     -162.734     253.206       8.275

 6  7  8  9  10  11  12  13  14  15  16  27  31  32  33  34  35 0
 6-311+G(2d,p)
 ****
 36  37 0
 6-311+G(2d,p)
 ****
 1  2  3  4  5  17  18  19  20  21  22  23  24  25 0
 3-21G
 ****
 26  28  29  30  38  39  40  41  42  43  44  45 0
 3-21G
 ****


