%nproc=1
%NoSave
%Mem=1900MB
#P OB98/GEN NMR

erre ene a

0 1
  C      665.047    -879.093    -248.754
  O      665.813    -877.972    -249.166
  H      665.459    -879.992    -249.205
  H      664.019    -878.954    -249.113
  H      665.052    -879.190    -247.666
  P      665.643    -876.615    -248.339
  C      667.320    -874.882    -247.360
  O      667.093    -875.902    -248.320
  C      668.783    -874.427    -247.403
  O      669.624    -875.476    -246.849
  C      669.292    -874.121    -248.814
  O      670.194    -872.993    -248.748
  C      670.099    -875.347    -249.163
  O      671.088    -875.088    -250.166
  C      670.681    -875.691    -247.793
  N      674.678    -878.527    -248.897
  C      674.529    -877.163    -248.866
  N      675.601    -876.410    -249.241
  N      673.433    -876.558    -248.490
  C      672.445    -877.410    -248.135
  C      672.455    -878.782    -248.132
  C      673.679    -879.445    -248.553
  O      673.870    -880.661    -248.636
  N      671.240    -879.293    -247.748
  C      670.475    -878.220    -247.542
  N      671.182    -877.067    -247.766
  O      665.457    -877.132    -246.830
  O      664.512    -875.739    -248.762
  H      670.618    -874.829    -250.979
  H      664.513    -877.205    -246.616
  H      675.545    -878.939    -249.219
  H      669.445    -878.237    -247.261
  H      671.525    -875.043    -247.517
  H      669.443    -876.130    -249.524
  H      676.494    -876.797    -249.504
  H      668.507    -873.907    -249.541
  H      675.525    -875.411    -249.176
  H      668.890    -873.548    -246.750
  H      667.100    -875.285    -246.355
  H      666.643    -874.038    -247.562
  P      669.903    -871.722    -249.691
  C      670.250    -869.149    -249.594
  O      670.552    -870.421    -249.034
  O      668.316    -871.495    -249.511
  O      670.235    -871.948    -251.123
  H      667.940    -871.179    -250.338
  H      670.760    -868.387    -249.043
  H      669.195    -868.979    -249.545
  H      670.568    -869.124    -250.615

 6  7  8  9  10  11  12  13  14  15  26  29  33  34 0
 6-311+G(2d,p)
 ****
 36  38  39  40  41 0
 6-311+G(2d,p)
 ****
 1  2  3  4  5  16  17  18  19  20  21  22  23  24  25 0
 3-21G
 ****
 27  28  30  31  32  35  37  42  43  44  45  46  47 0
 3-21G
 ****
 48  49 0
 3-21G
 ****


