%nproc=1
%NoSave
%Mem=1900MB
#P OB98/GEN NMR

erre ene a

0 1
  C     -956.138    -779.924     -37.381
  O     -957.029    -779.171     -38.182
  H     -955.244    -780.160     -37.975
  H     -956.613    -780.856     -37.072
  H     -955.824    -779.346     -36.499
  P     -958.296    -778.516     -37.453
  C     -959.744    -780.587     -38.072
  O     -959.592    -779.170     -38.110
  C     -961.128    -780.980     -38.604
  O     -962.098    -780.740     -37.543
  C     -961.570    -780.191     -39.840
  O     -962.326    -781.070     -40.676
  C     -962.520    -779.150     -39.258
  O     -963.459    -778.638     -40.181
  C     -963.164    -779.958     -38.110
  N     -963.788    -779.092     -37.101
  C     -965.178    -779.046     -37.058
  O     -965.917    -779.753     -37.747
  N     -965.718    -778.155     -36.170
  C     -965.017    -777.307     -35.361
  O     -965.557    -776.515     -34.607
  C     -963.548    -777.386     -35.467
  C     -963.019    -778.263     -36.320
  O     -958.296    -777.011     -38.020
  O     -958.266    -778.567     -35.957
  H     -957.755    -776.424     -37.452
  H     -963.937    -777.905     -39.764
  H     -966.720    -778.115     -36.140
  H     -962.971    -776.715     -34.844
  H     -961.931    -778.326     -36.423
  H     -963.908    -780.648     -38.519
  H     -961.939    -778.304     -38.852
  H     -960.758    -779.749     -40.392
  H     -961.122    -782.066     -38.797
  H     -959.644    -780.920     -37.028
  H     -958.960    -781.041     -38.680
  P     -961.558    -781.698     -41.953
  C     -961.851    -779.431     -43.250
  O     -962.055    -780.848     -43.221
  O     -962.313    -783.091     -42.097
  O     -960.090    -781.773     -41.769
  H     -963.249    -783.064     -41.871
  H     -962.242    -779.033     -44.163
  H     -960.804    -779.220     -43.188
  H     -962.355    -778.981     -42.420

 6  7  8  9  10  11  12  13  14  15  16  27  31  32  33  34  35 0
 6-311+G(2d,p)
 ****
 36  37 0
 6-311+G(2d,p)
 ****
 1  2  3  4  5  17  18  19  20  21  22  23  24  25 0
 3-21G
 ****
 26  28  29  30  38  39  40  41  42  43  44  45 0
 3-21G
 ****


