%nproc=1
%NoSave
%Mem=1900MB
#P OB98/GEN NMR

erre ene a

0 1
  C      253.863      -5.170     255.309
  O      253.177      -4.775     256.478
  P      253.231      -3.289     257.067
  C      250.732      -2.809     256.543
  O      252.088      -2.422     256.344
  C      249.795      -1.615     256.784
  O      250.127      -0.991     258.040
  C      250.012      -0.552     255.702
  O      249.361      -0.665     254.451
  C      249.809       0.781     256.412
  O      248.499       1.316     256.212
  C      250.026       0.434     257.887
  N      252.336       4.776     259.119
  C      251.007       4.555     258.806
  N      250.255       5.660     258.616
  N      250.485       3.363     258.670
  C      251.384       2.361     258.795
  C      252.719       2.455     259.118
  C      253.277       3.773     259.304
  O      254.465       4.014     259.498
  N      253.341       1.232     259.083
  C      252.392       0.400     258.702
  N      251.199       1.045     258.477
  O      254.587      -2.684     257.242
  O      252.609      -3.512     258.539
  H      247.856       0.605     256.380
  H      253.057      -2.891     259.145
  H      252.701       5.719     259.133
  H      252.526      -0.663     258.544
  H      249.166       0.752     258.489
  H      250.512       1.533     256.030
  H      250.656       6.585     258.569
  H      251.079      -0.572     255.447
  H      249.328       5.538     258.224
  H      248.757      -1.942     256.879
  H      250.708      -3.495     257.396
  H      250.381      -3.368     255.672
  P      249.785       0.060     253.091
  C      252.014      -1.189     253.188
  O      251.382       0.064     252.997
  O      249.440       1.605     253.341
  O      249.084      -0.437     251.869
  H      249.329       2.059     252.487
  H      253.073      -1.027     253.404
  H      251.929      -1.787     252.274
  H      251.560      -1.735     254.020
  H      253.674      -6.206     255.117
  H      254.914      -5.018     255.443
  H      253.521      -4.586     254.480

 3  4  5  6  7  8  9  10  11  12  23  26  30  31 0
 6-311+G(2d,p)
 ****
 33  35  36  37  38 0
 6-311+G(2d,p)
 ****
 1  2  13  14  15  16  17  18  19  20  21  22  24  25 0
 3-21G
 ****
 27  28  29  32  34  39  40  41  42  43  44  45  46  47  48  49 0
 3-21G
 ****


