%nproc=1
%NoSave
%Mem=1900MB
#P OB98/GEN NMR

erre ene a

0 1
  C     -281.907      -2.395     -86.921
  O     -281.627      -2.418     -85.534
  P     -280.747      -1.272     -84.845
  C     -282.879       0.117     -84.505
  O     -281.542       0.113     -84.993
  C     -283.148       1.333     -83.613
  O     -282.777       2.544     -84.335
  C     -284.613       1.480     -83.177
  O     -284.597       1.963     -81.827
  C     -285.152       2.539     -84.113
  O     -286.303       3.192     -83.596
  C     -283.913       3.433     -84.278
  N     -283.991       4.271     -85.468
  C     -285.076       5.153     -85.551
  O     -285.975       5.109     -84.710
  N     -285.110       6.059     -86.584
  C     -284.248       5.954     -87.549
  N     -284.273       6.907     -88.525
  C     -283.241       4.873     -87.621
  C     -283.144       4.106     -86.535
  O     -279.321      -1.222     -85.279
  O     -280.858      -1.586     -83.276
  H     -279.958      -1.638     -82.895
  H     -286.204       3.291     -82.622
  H     -282.630       4.752     -88.498
  H     -282.418       3.298     -86.479
  H     -283.783       4.074     -83.400
  H     -285.425       2.080     -85.073
  H     -285.160       0.530     -83.217
  H     -282.490       1.267     -82.739
  H     -284.949       7.656     -88.425
  H     -283.029      -0.793     -83.916
  H     -283.468       7.096     -89.121
  H     -283.578       0.093     -85.342
  P     -285.901       1.721     -80.917
  C     -285.080      -0.633     -80.196
  O     -286.116       0.141     -80.767
  O     -287.082       2.125     -81.936
  O     -286.013       2.541     -79.672
  H     -287.865       2.404     -81.423
  H     -285.367      -1.691     -80.241
  H     -284.928      -0.352     -79.149
  H     -284.147      -0.501     -80.757
  H     -282.505      -3.244     -87.178
  H     -280.989      -2.425     -87.471
  H     -282.438      -1.498     -87.163

 3  4  5  6  7  8  9  10  11  12  13  24  27  28  29  30  32 0
 6-311+G(2d,p)
 ****
 34  35 0
 6-311+G(2d,p)
 ****
 1  2  14  15  16  17  18  19  20  21  22  23  25  26 0
 3-21G
 ****
 31  33  36  37  38  39  40  41  42  43  44  45  46 0
 3-21G
 ****


