%nproc=1
%NoSave
%Mem=1900MB
#P OB98/GEN NMR

erre ene a

0 1
  C     -397.960    -505.910     229.815
  O     -397.637    -504.581     229.409
  P     -397.810    -504.198     227.869
  C     -395.643    -502.974     227.134
  O     -396.994    -502.835     227.583
  C     -395.001    -501.599     226.891
  O     -395.632    -500.990     225.721
  C     -395.190    -500.591     228.032
  O     -394.213    -500.559     229.072
  C     -395.072    -499.265     227.285
  O     -393.668    -498.922     227.115
  C     -395.688    -499.561     225.921
  N     -398.704    -495.427     225.560
  C     -397.353    -495.565     225.654
  N     -396.633    -496.704     225.739
  C     -397.437    -497.780     225.726
  C     -398.819    -497.804     225.631
  C     -399.466    -496.557     225.557
  N     -400.834    -496.414     225.468
  N     -399.292    -499.090     225.644
  C     -398.211    -499.847     225.771
  N     -397.062    -499.093     225.809
  O     -399.195    -504.233     227.322
  O     -396.881    -505.294     227.132
  H     -393.281    -499.644     226.587
  H     -397.308    -505.553     226.298
  H     -396.787    -494.642     225.656
  H     -398.218    -500.919     225.832
  H     -395.127    -499.100     225.092
  H     -395.533    -498.427     227.824
  H     -396.195    -500.673     228.472
  H     -393.942    -501.726     226.671
  H     -395.629    -503.554     226.199
  H     -401.213    -495.485     225.454
  H     -401.418    -497.237     225.508
  H     -395.103    -503.559     227.880
  P     -394.424    -501.378     230.431
  C     -392.784    -499.724     231.651
  O     -393.123    -501.049     231.330
  O     -394.716    -502.827     230.265
  O     -395.578    -500.540     231.168
  H     -395.303    -499.655     231.466
  H     -392.017    -499.736     232.425
  H     -393.660    -499.186     232.020
  H     -392.386    -499.223     230.766
  H     -397.794    -506.012     230.867
  H     -397.341    -506.605     229.287
  H     -398.988    -506.110     229.595

 3  4  5  6  7  8  9  10  11  12  22  25  29  30  31  32 0
 6-311+G(2d,p)
 ****
 33  36  37 0
 6-311+G(2d,p)
 ****
 1  2  13  14  15  16  17  18  19  20  21  23  24  26 0
 3-21G
 ****
 27  28  34  35  38  39  40  41  42  43  44  45  46  47  48 0
 3-21G
 ****


