%nproc=1
%NoSave
%Mem=1900MB
#P OB98/GEN NMR

erre ene a

0 1
  C     -264.294     363.898    -126.079
  O     -265.340     362.993    -125.764
  P     -265.099     361.405    -125.753
  C     -264.992     361.436    -123.170
  O     -264.333     361.102    -124.377
  C     -264.879     360.290    -122.165
  O     -265.431     360.725    -120.895
  C     -265.618     359.010    -122.578
  O     -264.848     357.901    -122.103
  C     -266.926     359.115    -121.820
  O     -267.562     357.858    -121.645
  C     -266.453     359.778    -120.521
  N     -267.539     360.435    -119.801
  C     -268.164     359.720    -118.779
  O     -267.827     358.566    -118.515
  N     -269.170     360.331    -118.070
  C     -269.573     361.515    -118.410
  N     -270.530     362.100    -117.641
  C     -269.010     362.261    -119.551
  C     -267.995     361.679    -120.178
  O     -264.431     360.864    -126.971
  O     -266.544     360.789    -125.472
  H     -267.930     357.579    -122.505
  H     -267.084     360.679    -126.294
  H     -269.398     363.237    -119.812
  H     -267.504     362.161    -121.011
  H     -265.971     359.038    -119.871
  H     -267.615     359.768    -122.367
  H     -265.743     358.924    -123.661
  H     -263.813     360.078    -122.000
  H     -270.763     361.633    -116.771
  H     -266.051     361.607    -123.388
  H     -270.653     363.106    -117.636
  H     -264.571     362.362    -122.760
  P     -265.302     356.420    -122.529
  C     -264.774     356.821    -125.036
  O     -265.737     356.456    -124.069
  O     -266.722     356.293    -121.786
  O     -264.406     355.303    -122.104
  H     -266.911     355.349    -121.622
  H     -265.241     356.785    -126.024
  H     -263.934     356.123    -125.024
  H     -264.417     357.839    -124.857
  H     -264.663     364.901    -126.029
  H     -263.935     363.698    -127.067
  H     -263.495     363.777    -125.378

 3  4  5  6  7  8  9  10  11  12  13  23  27  28  29  30  32 0
 6-311+G(2d,p)
 ****
 34  35 0
 6-311+G(2d,p)
 ****
 1  2  14  15  16  17  18  19  20  21  22  24  25  26 0
 3-21G
 ****
 31  33  36  37  38  39  40  41  42  43  44  45  46 0
 3-21G
 ****


