%nproc=1
%NoSave
%Mem=1900MB
#P OB98/GEN NMR

erre ene a

0 1
  C      336.024     -56.893     -52.155
  O      335.881     -57.333     -50.814
  P      334.462     -57.243     -50.056
  C      333.624     -59.646     -50.523
  O      333.516     -58.268     -50.849
  C      332.644     -59.996     -49.404
  O      332.981     -59.244     -48.224
  C      331.187     -59.667     -49.711
  O      330.622     -60.624     -50.592
  C      330.600     -59.635     -48.303
  O      330.346     -60.973     -47.841
  C      331.748     -59.007     -47.486
  N      331.552     -57.580     -47.241
  C      330.733     -57.250     -46.152
  O      330.220     -58.120     -45.452
  N      330.541     -55.921     -45.865
  C      331.094     -55.009     -46.602
  N      330.923     -53.707     -46.228
  C      331.915     -55.314     -47.789
  C      332.103     -56.612     -48.043
  O      333.915     -55.865     -49.919
  O      334.704     -57.997     -48.674
  H      330.170     -60.912     -46.879
  H      335.035     -57.400     -47.952
  H      332.336     -54.516     -48.386
  H      332.707     -56.924     -48.881
  H      331.859     -59.531     -46.528
  H      329.657     -59.076     -48.236
  H      331.108     -58.671     -50.166
  H      332.750     -61.070     -49.172
  H      330.505     -53.556     -45.315
  H      334.645     -59.845     -50.187
  H      331.533     -52.977     -46.562
  H      333.423     -60.251     -51.423
  P      329.259     -60.229     -51.347
  C      330.477     -58.744     -53.094
  O      329.543     -58.798     -52.030
  O      328.256     -59.902     -50.145
  O      328.731     -61.284     -52.259
  H      327.651     -60.652     -49.990
  H      330.378     -57.776     -53.596
  H      330.286     -59.539     -53.818
  H      331.497     -58.830     -52.703
  H      337.036     -57.037     -52.472
  H      335.775     -55.854     -52.218
  H      335.369     -57.456     -52.787

 3  4  5  6  7  8  9  10  11  12  13  23  27  28  29  30  32 0
 6-311+G(2d,p)
 ****
 34  35 0
 6-311+G(2d,p)
 ****
 1  2  14  15  16  17  18  19  20  21  22  24  25  26 0
 3-21G
 ****
 31  33  36  37  38  39  40  41  42  43  44  45  46 0
 3-21G
 ****


