%nproc=1
%NoSave
%Mem=1900MB
#P OB98/GEN NMR

erre ene a

0 1
  C     -138.919    -243.802     367.272
  O     -139.043    -242.798     366.257
  P     -139.669    -243.279     364.854
  C     -141.062    -241.097     364.637
  O     -140.114    -241.971     364.034
  C     -140.397    -240.124     365.615
  O     -139.253    -239.510     364.975
  C     -141.304    -238.986     366.105
  O     -140.997    -238.714     367.478
  C     -140.836    -237.794     365.288
  O     -141.157    -236.554     365.916
  C     -139.341    -238.091     365.195
  N     -138.161    -233.533     363.352
  C     -138.740    -233.872     364.561
  N     -139.070    -232.854     365.380
  N     -138.973    -235.107     364.928
  C     -138.561    -236.026     364.024
  C     -137.966    -235.810     362.797
  C     -137.753    -234.442     362.385
  O     -137.293    -234.072     361.308
  N     -137.692    -236.998     362.158
  C     -138.127    -237.924     362.992
  N     -138.667    -237.383     364.131
  O     -141.053    -243.957     365.290
  O     -138.805    -244.238     364.108
  H     -140.753    -235.847     365.378
  H     -141.089    -244.878     364.966
  H     -138.024    -232.567     363.111
  H     -138.100    -238.989     362.813
  H     -138.830    -237.863     366.137
  H     -141.317    -237.813     364.303
  H     -138.860    -231.886     365.187
  H     -142.375    -239.179     365.991
  H     -139.454    -233.087     366.288
  H     -140.021    -240.702     366.468
  H     -141.811    -241.687     365.169
  H     -141.575    -240.543     363.843
  P     -142.231    -238.291     368.414
  C     -141.941    -240.204     370.153
  O     -141.865    -238.817     369.879
  O     -143.406    -239.274     367.940
  O     -142.615    -236.854     368.311
  H     -144.278    -238.861     368.107
  H     -142.057    -240.797     369.243
  H     -142.791    -240.393     370.811
  H     -141.022    -240.516     370.659
  H     -138.494    -243.368     368.153
  H     -138.285    -244.589     366.920
  H     -139.886    -244.199     367.501

 3  4  5  6  7  8  9  10  11  12  23  26  30  31  33  0
 6-311+G(2d,p)
 ****
 35  36  37  38 0
 6-311+G(2d,p)
 ****
 1  2  13  14  15  16  17  18  19  20  21  22  24  25  27  28  29 0
 3-21G
 ****
 32  34  39  40  41  42  43  44  45  46  47  48  49 0
 3-21G
 ****


