%nproc=1
%NoSave
%Mem=1900MB
#P OB98/GEN NMR

erre ene a

0 1
  C      246.171     138.695      48.091
  O      247.530     138.305      48.201
  P      248.081     137.875      49.642
  C      249.611     139.974      49.590
  O      249.507     138.581      49.857
  C      250.982     140.506      50.010
  O      251.100     141.901      49.623
  C      251.234     140.430      51.520
  O      252.628     140.179      51.756
  C      250.942     141.838      51.997
  O      251.605     142.122      53.228
  C      251.439     142.654      50.805
  N      251.872     147.426      52.412
  C      252.800     146.405      52.437
  N      253.972     146.671      53.053
  N      252.601     145.231      51.902
  C      251.380     145.104      51.325
  C      250.383     146.049      51.222
  C      250.613     147.340      51.831
  O      249.822     148.276      51.867
  N      249.302     145.562      50.535
  C      249.621     144.314      50.258
  N      250.857     143.978      50.748
  O      248.453     136.331      49.436
  O      247.105     138.046      50.758
  H      252.531     141.827      53.124
  H      247.784     135.769      49.868
  H      252.069     148.312      52.849
  H      248.989     143.608      49.733
  H      252.530     142.767      50.823
  H      249.864     141.965      52.152
  H      254.162     147.534      53.543
  H      250.635     139.677      52.042
  H      254.652     145.926      53.125
  H      251.753     139.954      49.461
  H      248.837     140.501      50.150
  H      249.446     140.155      48.524
  P      252.970     138.855      52.598
  C      254.294     139.947      54.554
  O      254.334     139.171      53.374
  O      253.405     137.805      51.471
  O      251.842     138.355      53.437
  H      253.253     136.894      51.782
  H      254.640     139.335      55.392
  H      253.289     140.315      54.774
  H      254.965     140.802      54.438
  H      245.955     138.951      47.075
  H      245.991     139.543      48.719
  H      245.542     137.885      48.396

 3  4  5  6  7  8  9  10  11  12  23  26  30  31 0
 6-311+G(2d,p)
 ****
 33  35  36  37  38 0
 6-311+G(2d,p)
 ****
 1  2  13  14  15  16  17  18  19  20  21  22  24  25 0
 3-21G
 ****
 27  28  29  32  34  39  40  41  42  43  44  45  46  47  48  49 0
 3-21G
 ****


