%nproc=1
%NoSave
%Mem=1900MB
#P OB98/GEN NMR

erre ene a

0 1
  C       -0.550     -48.853     194.947
  O       -0.174     -50.181     195.262
  H        0.093     -48.487     194.142
  H       -0.418     -48.213     195.824
  H       -1.590     -48.818     194.613
  P       -1.144     -50.978     196.255
  C        0.380     -50.319     198.285
  O       -0.287     -51.347     197.567
  C        0.367     -50.629     199.779
  O        1.102     -49.632     200.516
  C       -1.014     -50.597     200.410
  O       -1.804     -51.708     200.047
  C       -0.648     -50.570     201.888
  O       -0.405     -51.886     202.397
  C        0.654     -49.733     201.888
  N        0.458     -48.433     202.504
  C        1.076     -48.262     203.751
  O        1.745     -49.173     204.239
  N        0.886     -47.082     204.421
  C        0.124     -46.166     203.909
  N       -0.048     -45.032     204.641
  C       -0.545     -46.307     202.601
  C       -0.338     -47.456     201.958
  O       -1.308     -52.388     195.519
  O       -2.433     -50.292     196.555
  H       -0.973     -52.492     201.877
  H       -0.467     -52.784     195.239
  H       -1.159     -45.507     202.211
  H       -0.792     -47.644     200.991
  H        1.447     -50.256     202.438
  H       -1.449     -50.138     202.493
  H       -1.520     -49.653     200.166
  H        0.853     -51.602     199.930
  H        0.384     -45.000     205.556
  H       -0.089     -49.349     198.094
  H       -0.678     -44.287     204.381
  H        1.409     -50.267     197.914
  P       -3.285     -51.523     199.468
  C       -4.425     -50.640     201.602
  O       -4.295     -51.734     200.702
  O       -3.608     -52.344     198.264
  O       -3.384     -49.943     199.225
  H       -3.257     -49.398     200.020
  H       -5.118     -50.895     202.376
  H       -4.783     -49.782     201.072
  H       -3.472     -50.419     202.035

 6  7  8  9  10  11  12  13  14  15  16  26  30  31  32  33  35 0
 6-311+G(2d,p)
 ****
 37  38 0
 6-311+G(2d,p)
 ****
 1  2  3  4  5  17  18  19  20  21  22  23  24  25 0
 3-21G
 ****
 27  28  29  34  36  39  40  41  42  43  44  45  46 0
 3-21G
 ****


