%nproc=1
%NoSave
%Mem=1900MB
#P OB98/GEN NMR

erre ene a

0 1
  C     -158.043    -119.254    -169.296
  O     -158.383    -118.286    -170.291
  P     -157.754    -118.484    -171.760
  C     -156.088    -116.498    -171.402
  O     -156.269    -117.876    -171.683
  C     -154.597    -116.133    -171.389
  O     -153.919    -116.894    -170.341
  C     -153.868    -116.401    -172.705
  O     -152.911    -115.339    -172.874
  C     -153.154    -117.715    -172.444
  O     -152.043    -117.902    -173.316
  C     -152.793    -117.550    -170.962
  N     -152.482    -118.817    -170.312
  C     -151.236    -119.374    -170.575
  O     -150.443    -118.885    -171.379
  N     -150.946    -120.542    -169.921
  C     -151.801    -121.236    -169.108
  O     -151.493    -122.276    -168.539
  C     -153.152    -120.657    -168.956
  C     -153.420    -119.498    -169.557
  O     -158.580    -117.408    -172.602
  O     -157.851    -119.891    -172.249
  H     -158.776    -116.594    -172.112
  H     -151.424    -117.155    -173.204
  H     -150.036    -120.946    -170.074
  H     -153.868    -121.208    -168.367
  H     -154.407    -119.058    -169.489
  H     -151.927    -116.882    -170.856
  H     -153.847    -118.549    -172.585
  H     -154.537    -116.429    -173.569
  H     -154.512    -115.073    -171.118
  H     -156.516    -116.263    -170.424
  H     -156.631    -115.906    -172.143
  P     -153.259    -114.163    -173.923
  C     -151.812    -114.833    -176.003
  O     -153.079    -114.780    -175.391
  O     -151.945    -113.249    -173.756
  O     -154.522    -113.420    -173.645
  H     -151.119    -113.762    -173.781
  H     -151.867    -115.487    -176.877
  H     -151.054    -115.230    -175.315
  H     -151.515    -113.833    -176.332
  H     -158.526    -119.003    -168.375
  H     -156.983    -119.261    -169.153
  H     -158.366    -120.223    -169.616

 3  4  5  6  7  8  9  10  11  12  13  24  28  29  30  31  32 0
 6-311+G(2d,p)
 ****
 33  34 0
 6-311+G(2d,p)
 ****
 1  2  14  15  16  17  18  19  20  21  22  23  25  26  27 0
 3-21G
 ****
 35  36  37  38  39  40  41  42  43  44  45 0
 3-21G
 ****


