%nproc=1
%NoSave
%Mem=1900MB
#P OB98/GEN NMR

erre ene a

0 1
  C     -155.022     -86.328      92.185
  O     -155.592     -85.558      91.143
  H     -155.576     -86.139      93.105
  H     -153.976     -86.042      92.335
  H     -155.084     -87.395      91.946
  P     -154.919     -85.711      89.692
  C     -154.687     -83.161      89.191
  O     -155.326     -84.392      88.876
  C     -155.720     -82.039      89.315
  O     -156.260     -81.756      87.982
  C     -156.926     -82.381      90.209
  O     -157.420     -81.160      90.775
  C     -157.924     -82.916      89.195
  O     -159.215     -82.996      89.749
  C     -157.690     -81.918      88.064
  N     -161.683     -81.639      84.872
  C     -161.429     -81.029      86.054
  N     -160.342     -81.144      86.837
  C     -159.438     -81.974      86.284
  C     -159.551     -82.662      85.085
  C     -160.741     -82.468      84.363
  N     -161.004     -83.098      83.168
  N     -158.418     -83.424      84.852
  C     -157.639     -83.199      85.889
  N     -158.218     -82.338      86.783
  O     -155.789     -86.868      89.007
  O     -153.462     -86.029      89.693
  H     -159.518     -82.110      90.048
  H     -155.344     -87.729      89.121
  H     -162.210     -80.363      86.415
  H     -156.658     -83.639      86.050
  H     -158.126     -80.935      88.292
  H     -157.654     -83.933      88.880
  H     -156.677     -83.086      91.010
  H     -155.220     -81.122      89.648
  H     -153.968     -82.924      88.396
  H     -154.149     -83.262      90.143
  H     -161.894     -82.921      82.719
  H     -160.321     -83.731      82.780
  P     -156.601     -80.470      91.978
  C     -157.131     -82.428      93.641
  O     -157.172     -81.037      93.372
  O     -157.195     -78.976      91.963
  O     -155.121     -80.457      91.834
  H     -156.519     -78.358      92.310
  H     -157.551     -82.617      94.607
  H     -156.116     -82.765      93.621
  H     -157.696     -82.952      92.898

 6  7  8  9  10  11  12  13  14  15  25  28  32  33  34  35 0
 6-311+G(2d,p)
 ****
 36  37  40 0
 6-311+G(2d,p)
 ****
 1  2  3  4  5  16  17  18  19  20  21  22  23  24 0
 3-21G
 ****
 26  27  29  30  31  38  39 41  42  43  44  45  46  47  48 0
 3-21G
 ****


