%nproc=1
%NoSave
%Mem=1900MB
#P OB98/GEN NMR

erre ene a

0 1
  C      120.348     269.503     -33.847
  O      120.927     270.650     -34.443
  P      120.399     271.061     -35.910
  C      119.948     269.535     -37.966
  O      120.825     269.878     -36.902
  C      120.234     268.112     -38.453
  O      119.425     267.171     -37.719
  C      119.918     267.869     -39.918
  O      120.912     268.428     -40.760
  C      119.861     266.341     -39.938
  O      121.186     265.799     -39.962
  C      119.183     266.035     -38.584
  N      115.558     262.905     -40.397
  C      116.900     262.865     -40.467
  N      117.801     263.745     -39.985
  C      117.179     264.755     -39.354
  C      115.814     264.947     -39.216
  C      114.980     263.966     -39.771
  N      113.603     264.015     -39.693
  N      115.553     266.117     -38.534
  C      116.734     266.612     -38.254
  N      117.755     265.825     -38.717
  O      121.376     272.254     -36.318
  O      118.959     271.463     -35.967
  H      121.610     266.093     -40.791
  H      120.908     272.919     -36.863
  H      117.316     261.998     -40.988
  H      116.908     267.535     -37.711
  H      119.606     265.149     -38.103
  H      119.317     265.949     -40.804
  H      118.938     268.286     -40.175
  H      121.294     267.892     -38.247
  H      120.098     270.232     -38.804
  H      113.077     263.349     -40.242
  H      113.179     264.873     -39.356
  H      118.912     269.631     -37.620
  P      120.554     268.588     -42.314
  C      119.949     266.881     -44.140
  O      120.524     267.079     -42.858
  O      121.927     269.150     -42.910
  O      119.342     269.411     -42.598
  H      122.697     268.625     -42.610
  H      120.042     265.827     -44.407
  H      120.477     267.487     -44.883
  H      118.891     267.156     -44.119
  H      120.784     269.343     -32.883
  H      120.529     268.649     -34.466
  H      119.293     269.650     -33.741

 3  4  5  6  7  8  9  10  11  12  22  25  29  30  31  32 0
 6-311+G(2d,p)
 ****
 33  36  37 0
 6-311+G(2d,p)
 ****
 1  2  13  14  15  16  17  18  19  20  21  23  24  26 0
 3-21G
 ****
 27  28  34  35  38  39  40  41  42  43  44  45  46  47  48 0
 3-21G
 ****


