%nproc=1
%NoSave
%Mem=1900MB
#P OB98/GEN NMR

erre ene a

0 1
  C     -137.118    -118.522     253.777
  O     -138.323    -119.234     253.973
  H     -136.450    -119.096     253.131
  H     -137.345    -117.571     253.286
  H     -136.626    -118.314     254.732
  P     -138.269    -120.513     254.938
  C     -138.455    -122.159     252.939
  O     -137.691    -121.724     254.053
  C     -137.584    -122.976     251.978
  O     -136.889    -124.001     252.748
  C     -138.372    -123.683     250.860
  O     -137.601    -123.623     249.659
  C     -138.432    -125.126     251.339
  O     -138.586    -126.053     250.271
  C     -137.100    -125.253     252.075
  N     -137.142    -130.326     252.426
  C     -136.832    -129.494     251.406
  N     -136.794    -128.145     251.415
  C     -137.055    -127.668     252.648
  C     -137.384    -128.392     253.784
  C     -137.440    -129.791     253.633
  N     -137.822    -130.642     254.647
  N     -137.640    -127.541     254.843
  C     -137.493    -126.326     254.343
  N     -137.142    -126.355     253.021
  O     -139.821    -120.883     255.109
  O     -137.600    -120.300     256.252
  H     -138.477    -126.962     250.619
  H     -140.199    -120.376     255.853
  H     -136.592    -129.974     250.462
  H     -137.656    -125.404     254.881
  H     -136.258    -125.431     251.399
  H     -139.279    -125.247     252.030
  H     -139.367    -123.260     250.686
  H     -136.823    -122.318     251.556
  H     -138.841    -121.282     252.407
  H     -137.939    -131.617     254.418
  H     -138.150    -130.252     255.516
  H     -139.297    -122.761     253.290
  P     -138.212    -122.800     248.427
  C     -139.490    -124.700     247.176
  O     -139.573    -123.515     247.964
  O     -137.201    -123.124     247.227
  O     -138.328    -121.328     248.675
  H     -137.130    -122.355     246.623
  H     -140.476    -125.050     246.953
  H     -138.959    -125.453     247.720
  H     -138.972    -124.487     246.264

 6  7  8  9  10  11  12  13  14  15  25  28  32  33  34  35 0
 6-311+G(2d,p)
 ****
 36  39  40 0
 6-311+G(2d,p)
 ****
 1  2  3  4  5  16  17  18  19  20  21  22  23  24 0
 3-21G
 ****
 26  27  29  30  31  37  38  41  42  43  44  45  46  47 0
 3-21G
 ****
 48 0
 3-21G
 ****


