%nproc=1
%NoSave
%Mem=1900MB
#P OB98/GEN NMR

erre ene a

0 1
  C      239.545       6.416    -136.045
  O      239.875       7.451    -136.952
  P      238.763       8.049    -137.935
  C      239.131       6.722    -140.104
  O      238.315       6.893    -138.950
  C      238.539       5.659    -141.027
  O      238.490       4.374    -140.364
  C      237.106       5.936    -141.453
  O      237.027       6.983    -142.402
  C      236.684       4.565    -141.965
  O      237.162       4.351    -143.302
  C      237.411       3.628    -140.978
  N      236.513       3.069    -139.979
  C      235.616       2.099    -140.433
  O      235.556       1.815    -141.631
  N      234.802       1.479    -139.516
  C      234.793       1.883    -138.284
  N      234.013       1.194    -137.411
  C      235.611       3.016    -137.803
  C      236.454       3.543    -138.688
  O      239.117       9.347    -138.581
  O      237.471       8.218    -137.001
  H      237.117       9.121    -137.113
  H      236.899       3.443    -143.550
  H      235.518       3.357    -136.780
  H      237.109       4.364    -138.417
  H      237.889       2.806    -141.522
  H      235.597       4.446    -141.988
  H      236.504       6.197    -140.573
  H      239.190       5.568    -141.906
  H      233.481       0.411    -137.775
  H      240.131       6.416    -139.784
  H      234.175       1.205    -136.407
  H      239.218       7.679    -140.629
  P      236.033       8.195    -142.064
  C      234.050       7.321    -143.483
  O      234.537       7.643    -142.194
  O      236.193       9.167    -143.327
  O      236.338       8.911    -140.789
  H      236.137      10.096    -143.038
  H      233.193       6.655    -143.376
  H      234.813       6.822    -144.086
  H      233.726       8.236    -143.987
  H      240.412       6.150    -135.477
  H      239.199       5.562    -136.589
  H      238.775       6.754    -135.384

 3  4  5  6  7  8  9  10  11  12  13  24  27  28  29  30  32 0
 6-311+G(2d,p)
 ****
 34  35 0
 6-311+G(2d,p)
 ****
 1  2  14  15  16  17  18  19  20  21  22  23  25  26 0
 3-21G
 ****
 31  33  36  37  38  39  40  41  42  43  44  45  46 0
 3-21G
 ****


