%nproc=1
%NoSave
%Mem=1900MB
#P OB98/GEN NMR

erre ene a

0 1
  C     -248.932    -231.259     325.973
  O     -248.600    -230.154     326.793
  H     -248.494    -232.164     326.410
  H     -248.522    -231.120     324.970
  H     -250.019    -231.380     325.926
  P     -249.174    -228.724     326.332
  C     -250.990    -228.674     328.178
  O     -250.711    -228.753     326.784
  C     -251.191    -227.221     328.606
  O     -252.273    -226.620     327.867
  C     -251.546    -227.039     330.076
  O     -250.381    -227.100     330.890
  C     -252.145    -225.640     330.057
  O     -251.091    -224.658     330.038
  C     -252.903    -225.620     328.714
  N     -257.568    -223.706     329.738
  C     -256.328    -223.201     329.905
  N     -255.138    -223.777     329.660
  C     -255.305    -225.023     329.172
  C     -256.503    -225.679     328.951
  C     -257.682    -224.966     329.248
  N     -258.947    -225.494     329.059
  N     -256.279    -226.952     328.452
  C     -254.965    -227.041     328.333
  N     -254.330    -225.910     328.791
  O     -248.909    -228.344     324.915
  O     -248.510    -227.762     327.432
  H     -250.589    -224.782     329.206
  H     -248.505    -228.191     328.302
  H     -256.289    -222.181     330.295
  H     -254.436    -227.881     327.910
  H     -252.812    -224.651     328.208
  H     -252.753    -225.435     330.940
  H     -252.318    -227.756     330.396
  H     -250.280    -226.666     328.352
  H     -250.178    -229.121     328.754
  H     -259.721    -224.984     329.455
  H     -259.020    -226.464     328.813
  H     -251.902    -229.252     328.362
  P     -250.464    -227.635     332.402
  C     -250.217    -230.067     331.595
  O     -251.015    -229.147     332.328
  O     -251.207    -226.749     333.344
  O     -248.941    -227.825     332.844
  H     -248.830    -227.558     333.775
  H     -250.678    -231.033     331.614
  H     -249.245    -230.127     332.037
  H     -250.128    -229.734     330.582

 6  7  8  9  10  11  12  13  14  15  25  28  32  33  34  35 0
 6-311+G(2d,p)
 ****
 36  39  40 0
 6-311+G(2d,p)
 ****
 1  2  3  4  5  16  17  18  19  20  21  22  23  24 0
 3-21G
 ****
 26  27  29  30  31  37  38  41  42  43  44  45  46  47 0
 3-21G
 ****
 48 0
 3-21G
 ****


