%nproc=1
%NoSave
%Mem=1900MB
#P OB98/GEN NMR

erre ene a

0 1
  C     -354.886    -207.454    -276.033
  O     -355.185    -208.755    -275.569
  H     -355.587    -206.752    -275.569
  H     -355.014    -207.404    -277.116
  H     -353.870    -207.165    -275.758
  P     -354.219    -209.964    -275.984
  C     -355.962    -211.789    -276.526
  O     -354.978    -211.331    -275.610
  C     -356.965    -212.713    -275.828
  O     -356.393    -214.043    -275.739
  C     -357.329    -212.264    -274.410
  O     -358.709    -212.537    -274.170
  C     -356.469    -213.149    -273.530
  O     -357.032    -213.335    -272.232
  C     -356.397    -214.434    -274.352
  N     -354.723    -218.900    -272.683
  C     -356.003    -218.482    -272.969
  N     -356.993    -219.380    -272.763
  N     -356.297    -217.290    -273.416
  C     -355.203    -216.502    -273.596
  C     -353.882    -216.802    -273.351
  C     -353.579    -218.120    -272.837
  O     -352.463    -218.542    -272.551
  N     -353.071    -215.736    -273.642
  C     -353.896    -214.794    -274.060
  N     -355.202    -215.207    -274.036
  O     -352.822    -209.864    -275.455
  O     -354.242    -209.962    -277.583
  H     -356.429    -213.937    -271.741
  H     -353.414    -209.594    -277.945
  H     -354.553    -219.828    -272.332
  H     -353.604    -213.806    -274.384
  H     -357.259    -215.092    -274.180
  H     -355.474    -212.699    -273.410
  H     -356.839    -220.322    -272.445
  H     -357.130    -211.204    -274.248
  H     -357.944    -219.106    -272.997
  H     -357.859    -212.789    -276.456
  H     -355.454    -212.337    -277.331
  H     -356.482    -210.926    -276.962
  P     -359.797    -211.405    -274.498
  C     -361.419    -211.791    -272.547
  O     -361.228    -211.878    -273.950
  O     -359.797    -210.903    -275.909
  O     -359.405    -210.228    -273.475
  H     -359.578    -209.366    -273.903
  H     -362.403    -212.131    -272.299
  H     -361.303    -210.774    -272.234
  H     -360.695    -212.402    -272.050

 6  7  8  9  10  11  12  13  14  15  26  29  33  34 0
 6-311+G(2d,p)
 ****
 36  38  39  40  41 0
 6-311+G(2d,p)
 ****
 1  2  3  4  5  16  17  18  19  20  21  22  23  24  25 0
 3-21G
 ****
 27  28  30  31  32  35  37  42  43  44  45  46  47 0
 3-21G
 ****
 48  49 0
 3-21G
 ****


