%nproc=1
%NoSave
%Mem=1900MB
#P OB98/GEN NMR

erre ene a

0 1
  C      -42.978    -336.134    -243.902
  O      -43.222    -335.009    -244.729
  P      -44.752    -334.546    -244.899
  C      -44.808    -332.870    -242.901
  O      -45.252    -334.101    -243.446
  C      -45.928    -331.833    -242.983
  O      -47.170    -332.397    -242.512
  C      -45.686    -330.581    -242.151
  O      -44.836    -329.683    -242.843
  C      -47.108    -330.061    -241.963
  O      -47.546    -329.335    -243.126
  C      -47.903    -331.368    -241.797
  N      -50.130    -330.152    -237.423
  C      -50.006    -329.422    -238.592
  N      -50.600    -328.209    -238.607
  N      -49.361    -329.842    -239.647
  C      -48.805    -331.067    -239.482
  C      -48.847    -331.878    -238.374
  C      -49.609    -331.426    -237.235
  O      -49.833    -332.073    -236.216
  N      -48.146    -333.041    -238.576
  C      -47.711    -332.939    -239.816
  N      -48.100    -331.772    -240.417
  O      -45.517    -335.921    -245.175
  O      -44.993    -333.531    -245.973
  H      -47.330    -329.850    -243.925
  H      -45.673    -336.049    -246.129
  H      -50.655    -329.784    -236.653
  H      -47.129    -333.692    -240.327
  H      -48.898    -331.302    -242.253
  H      -47.187    -329.376    -241.116
  H      -51.093    -327.809    -237.826
  H      -45.260    -330.844    -241.178
  H      -50.512    -327.656    -239.450
  H      -46.060    -331.571    -244.040
  H      -43.942    -332.515    -243.468
  H      -44.505    -333.027    -241.858
  P      -44.005    -328.627    -241.966
  C      -41.786    -329.920    -242.354
  O      -42.706    -329.384    -241.420
  O      -44.914    -328.436    -240.661
  O      -43.745    -327.324    -242.648
  H      -44.860    -327.507    -240.360
  H      -40.788    -329.911    -241.908
  H      -41.770    -329.343    -243.282
  H      -42.065    -330.952    -242.579
  H      -41.927    -336.335    -243.874
  H      -43.494    -336.985    -244.296
  H      -43.329    -335.931    -242.912

 3  4  5  6  7  8  9  10  11  12  23  26  30  31 0
 6-311+G(2d,p)
 ****
 33  35  36  37  38 0
 6-311+G(2d,p)
 ****
 1  2  13  14  15  16  17  18  19  20  21  22  24  25 0
 3-21G
 ****
 27  28  29  32  34  39  40  41  42  43  44  45  46  47  48  49 0
 3-21G
 ****


