%nproc=1
%NoSave
%Mem=1900MB
#P OB98/GEN NMR

erre ene a

0 1
  C     -115.037     -91.444       1.358
  O     -114.962     -92.088       2.608
  H     -116.045     -91.036       1.237
  H     -114.857     -92.156       0.549
  H     -114.318     -90.623       1.302
  P     -113.598     -92.821       3.035
  C     -113.875     -94.851       4.580
  O     -113.885     -93.432       4.497
  C     -114.594     -95.333       5.842
  O     -113.806     -94.982       7.012
  C     -115.992     -94.724       6.028
  O     -116.926     -95.752       6.363
  C     -115.819     -93.787       7.213
  O     -117.036     -93.535       7.908
  C     -114.738     -94.524       8.008
  N     -114.110     -93.668       9.005
  C     -114.726     -93.629      10.260
  O     -115.736     -94.299      10.476
  N     -114.217     -92.794      11.220
  C     -113.211     -92.027      10.938
  N     -112.774     -91.201      11.926
  C     -112.548     -92.016       9.617
  C     -113.041     -92.856       8.709
  O     -112.376     -91.972       2.933
  O     -113.531     -94.129       2.115
  H     -117.609     -92.975       7.339
  H     -112.595     -94.430       2.056
  H     -111.716     -91.354       9.431
  H     -112.621     -92.917       7.710
  H     -115.154     -95.404       8.515
  H     -115.427     -92.823       6.858
  H     -116.349     -94.192       5.146
  H     -114.638     -96.429       5.819
  H     -113.263     -91.237      12.813
  H     -112.835     -95.195       4.577
  H     -112.017     -90.544      11.816
  H     -114.390     -95.253       3.702
  P     -117.337     -96.750       5.176
  C     -119.627     -97.303       6.263
  O     -118.397     -97.803       5.760
  O     -116.012     -97.619       4.950
  O     -117.754     -96.049       3.926
  H     -115.604     -97.384       4.095
  H     -120.226     -98.117       6.615
  H     -120.148     -96.788       5.483
  H     -119.434     -96.627       7.070

 6  7  8  9  10  11  12  13  14  15  16  26  30  31  32  33  35 0
 6-311+G(2d,p)
 ****
 37  38 0
 6-311+G(2d,p)
 ****
 1  2  3  4  5  17  18  19  20  21  22  23  24  25 0
 3-21G
 ****
 27  28  29  34  36  39  40  41  42  43  44  45  46 0
 3-21G
 ****


