%nproc=1
%NoSave
%Mem=1900MB
#P OB98/GEN NMR

erre ene a

0 1
  C     -106.349     174.570      71.997
  O     -106.489     175.272      73.217
  H     -105.803     173.643      72.189
  H     -105.784     175.166      71.275
  H     -107.331     174.319      71.588
  P     -107.222     176.694      73.200
  C     -106.372     179.072      72.654
  O     -106.263     177.681      72.375
  C     -105.916     179.890      71.449
  O     -106.856     179.756      70.366
  C     -105.786     181.387      71.722
  O     -104.551     181.675      72.356
  C     -105.854     181.935      70.306
  O     -104.590     181.728      69.644
  C     -106.930     181.033      69.672
  N     -110.140     184.734      68.350
  C     -108.776     184.636      68.160
  N     -108.177     185.686      67.559
  N     -108.062     183.608      68.536
  C     -108.781     182.664      69.185
  C     -110.131     182.656      69.449
  C     -110.922     183.770      68.969
  O     -112.138     183.884      69.096
  N     -110.488     181.573      70.213
  C     -109.364     180.900      70.364
  N     -108.294     181.526      69.766
  O     -107.646     177.234      74.532
  O     -108.465     176.486      72.214
  H     -104.756     181.782      68.685
  H     -109.263     176.217      72.705
  H     -110.637     185.555      68.047
  H     -109.267     179.958      70.889
  H     -106.735     180.842      68.611
  H     -106.064     183.005      70.273
  H     -108.645     186.564      67.385
  H     -106.639     181.769      72.291
  H     -107.169     185.657      67.465
  H     -104.963     179.471      71.101
  H     -105.739     179.283      73.522
  H     -107.406     179.331      72.904
  P     -104.423     182.838      73.458
  C     -104.258     185.415      73.301
  O     -104.623     184.210      72.651
  O     -103.188     182.779      74.289
  O     -105.780     182.742      74.293
  H     -105.737     182.076      75.023
  H     -104.444     186.243      72.649
  H     -103.218     185.385      73.551
  H     -104.836     185.528      74.194

 6  7  8  9  10  11  12  13  14  15  26  29  33  34 0
 6-311+G(2d,p)
 ****
 36  38  39  40  41 0
 6-311+G(2d,p)
 ****
 1  2  3  4  5  16  17  18  19  20  21  22  23  24  25 0
 3-21G
 ****
 27  28  30  31  32  35  37  42  43  44  45  46  47 0
 3-21G
 ****
 48  49 0
 3-21G
 ****


