%nproc=1
%NoSave
%Mem=1900MB
#P OB98/GEN NMR

erre ene a

0 1
  C      228.875       7.417     144.393
  O      227.880       6.750     143.650
  H      228.803       7.096     145.437
  H      228.718       8.498     144.358
  H      229.870       7.168     144.018
  P      227.725       7.065     142.083
  C      225.267       7.798     142.196
  O      226.172       6.797     141.749
  C      223.860       7.227     142.375
  O      223.816       6.411     143.579
  C      222.768       8.300     142.504
  O      221.665       7.972     141.656
  C      222.339       8.201     143.960
  O      221.017       8.677     144.185
  C      222.565       6.709     144.225
  N      222.589       6.403     145.650
  C      221.534       5.620     146.130
  O      220.657       5.224     145.361
  N      221.468       5.350     147.473
  C      222.352       5.860     148.274
  N      222.212       5.577     149.597
  C      223.466       6.714     147.814
  C      223.526       6.941     146.500
  O      228.694       6.348     141.204
  O      227.837       8.658     141.973
  H      220.392       8.112     143.680
  H      228.104       8.897     141.055
  H      224.173       7.118     148.523
  H      224.307       7.556     146.069
  H      221.782       6.102     143.750
  H      223.024       8.797     144.579
  H      223.119       9.302     142.258
  H      223.652       6.548     141.538
  H      221.430       4.994     149.869
  H      225.259       8.614     141.466
  H      222.822       5.936     150.315
  H      225.622       8.179     143.159
  P      221.391       8.973     140.431
  C      219.025       9.975     140.806
  O      219.811       8.988     140.150
  O      222.000       8.192     139.175
  O      222.022      10.313     140.606
  H      222.807       8.645     138.863
  H      218.000       9.861     140.523
  H      219.367      10.949     140.523
  H      219.117       9.858     141.866

 6  7  8  9  10  11  12  13  14  15  16  26  30  31  32  33  35 0
 6-311+G(2d,p)
 ****
 37  38 0
 6-311+G(2d,p)
 ****
 1  2  3  4  5  17  18  19  20  21  22  23  24  25 0
 3-21G
 ****
 27  28  29  34  36  39  40  41  42  43  44  45  46 0
 3-21G
 ****


