%nproc=1
%NoSave
%Mem=1900MB
#P OB98/GEN NMR

erre ene a

0 1
  C      -88.059     -48.068    -148.493
  O      -88.104     -46.656    -148.288
  P      -89.456     -45.868    -148.637
  C      -89.155     -43.803    -147.127
  O      -89.181     -44.298    -148.461
  C      -88.887     -42.298    -147.112
  O      -87.486     -42.004    -147.282
  C      -89.593     -41.551    -148.230
  O      -90.979     -41.429    -147.963
  C      -88.819     -40.242    -148.252
  O      -89.299     -39.342    -147.240
  C      -87.386     -40.707    -147.909
  N      -86.500     -40.738    -149.062
  C      -85.691     -39.612    -149.245
  O      -85.780     -38.652    -148.479
  N      -84.814     -39.597    -150.302
  C      -84.758     -40.613    -151.106
  N      -83.869     -40.545    -152.133
  C      -85.602     -41.813    -150.955
  C      -86.448     -41.805    -149.927
  O      -90.690     -46.377    -147.969
  O      -89.556     -46.025    -150.232
  H      -90.274     -39.356    -147.309
  H      -90.498     -46.024    -150.489
  H      -85.513     -42.637    -151.649
  H      -87.107     -42.646    -149.743
  H      -86.939     -40.037    -147.163
  H      -88.915     -39.728    -149.213
  H      -89.446     -42.082    -149.180
  H      -89.210     -41.904    -146.139
  H      -83.310     -39.706    -152.222
  H      -88.379     -44.325    -146.560
  H      -83.715     -41.304    -152.782
  H      -90.109     -44.038    -146.644
  P      -91.956     -42.546    -148.569
  C      -94.075     -42.477    -147.080
  O      -93.462     -42.083    -148.290
  O      -91.756     -43.780    -147.566
  O      -91.654     -42.943    -149.978
  H      -91.836     -44.617    -148.058
  H      -94.946     -41.838    -146.904
  H      -93.390     -42.377    -146.234
  H      -94.411     -43.514    -147.158
  H      -87.095     -48.438    -148.214
  H      -88.239     -48.284    -149.525
  H      -88.809     -48.540    -147.893

 3  4  5  6  7  8  9  10  11  12  13  23  27  28  29  30  32 0
 6-311+G(2d,p)
 ****
 34  35 0
 6-311+G(2d,p)
 ****
 1  2  14  15  16  17  18  19  20  21  22  24  25  26 0
 3-21G
 ****
 31  33  36  37  38  39  40  41  42  43  44  45  46 0
 3-21G
 ****


