%nproc=1
%NoSave
%Mem=1900MB
#P OB98/GEN NMR

erre ene a

0 1
  C     -875.048    -585.469     811.481
  O     -875.815    -586.440     812.166
  P     -875.436    -586.844     813.672
  C     -877.130    -585.241     814.762
  O     -876.724    -586.598     814.597
  C     -878.625    -585.099     814.506
  O     -878.947    -585.430     813.135
  C     -879.488    -586.015     815.355
  O     -879.554    -585.593     816.699
  C     -880.810    -585.960     814.595
  O     -881.532    -584.755     814.936
  C     -880.323    -585.877     813.125
  N     -880.466    -587.150     812.436
  C     -881.351    -587.156     811.349
  O     -882.019    -586.164     811.071
  N     -881.464    -588.310     810.607
  C     -880.840    -589.388     810.985
  N     -880.950    -590.485     810.186
  C     -880.034    -589.456     812.223
  C     -879.868    -588.309     812.874
  O     -874.161    -586.250     814.190
  O     -875.335    -588.448     813.625
  H     -874.494    -588.718     814.036
  H     -880.995    -584.007     814.599
  H     -879.590    -590.397     812.528
  H     -879.273    -588.256     813.777
  H     -880.888    -585.105     812.588
  H     -881.461    -586.802     814.816
  H     -879.093    -587.033     815.307
  H     -878.893    -584.044     814.679
  H     -881.490    -590.389     809.339
  H     -876.568    -584.621     814.054
  H     -880.262    -591.232     810.208
  H     -876.874    -584.916     815.776
  P     -880.004    -586.694     817.782
  C     -877.557    -587.204     818.456
  O     -878.849    -586.791     818.884
  O     -879.899    -588.076     816.981
  O     -881.388    -586.488     818.325
  H     -880.617    -588.669     817.258
  H     -876.832    -586.894     819.217
  H     -877.288    -586.751     817.498
  H     -877.533    -588.293     818.374
  H     -875.445    -585.330     810.497
  H     -874.033    -585.800     811.413
  H     -875.086    -584.543     812.015

 3  4  5  6  7  8  9  10  11  12  13  24  27  28  29  30  32 0
 6-311+G(2d,p)
 ****
 34  35 0
 6-311+G(2d,p)
 ****
 1  2  14  15  16  17  18  19  20  21  22  23  25  26 0
 3-21G
 ****
 31  33  36  37  38  39  40  41  42  43  44  45  46 0
 3-21G
 ****


