%nproc=1
%NoSave
%Mem=1900MB
#P OB98/GEN NMR

erre ene a

0 1
  C     -414.883      40.914     251.558
  O     -414.161      40.091     252.460
  P     -414.635      40.067     253.994
  C     -412.798      41.882     254.534
  O     -414.157      41.464     254.622
  C     -412.674      43.354     254.926
  O     -413.402      44.174     253.985
  C     -413.249      43.696     256.296
  O     -412.387      43.294     257.347
  C     -413.444      45.204     256.166
  O     -412.192      45.886     256.386
  C     -413.878      45.343     254.694
  N     -415.319      45.509     254.532
  C     -415.843      46.753     254.875
  O     -415.148      47.682     255.294
  N     -417.200      46.891     254.740
  C     -418.070      45.912     254.365
  O     -419.283      46.078     254.305
  C     -417.470      44.610     254.048
  C     -416.144      44.468     254.143
  O     -413.622      38.982     254.598
  O     -416.085      39.743     254.157
  H     -412.787      38.945     254.092
  H     -411.544      45.464     255.790
  H     -417.597      47.788     254.961
  H     -418.134      43.801     253.755
  H     -415.681      43.516     253.922
  H     -413.374      46.203     254.230
  H     -414.163      45.599     256.890
  H     -414.230      43.209     256.420
  H     -411.614      43.635     254.876
  H     -412.450      41.746     253.508
  H     -412.192      41.249     255.194
  P     -413.066      43.071     258.792
  C     -412.308      45.478     259.475
  O     -413.352      44.529     259.384
  O     -411.819      42.530     259.638
  O     -414.242      42.147     258.762
  H     -410.992      43.021     259.454
  H     -412.747      46.476     259.552
  H     -411.659      45.440     258.592
  H     -411.715      45.283     260.370
  H     -414.458      40.830     250.580
  H     -414.830      41.932     251.884
  H     -415.906      40.601     251.530

 3  4  5  6  7  8  9  10  11  12  13  24  28  29  30  31  32 0
 6-311+G(2d,p)
 ****
 33  34 0
 6-311+G(2d,p)
 ****
 1  2  14  15  16  17  18  19  20  21  22  23  25  26  27 0
 3-21G
 ****
 35  36  37  38  39  40  41  42  43  44  45 0
 3-21G
 ****


