%nproc=1
%NoSave
%Mem=1900MB
#P OB98/GEN NMR

erre ene a

0 1
  C      591.344    -636.018     231.352
  O      590.866    -635.925     229.999
  P      591.472    -636.924     228.901
  C      590.502    -638.432     227.012
  O      590.340    -637.271     227.829
  C      589.182    -639.206     226.902
  O      588.870    -639.909     228.125
  C      587.976    -638.317     226.623
  O      587.861    -638.008     225.250
  C      586.832    -639.213     227.056
  O      586.537    -640.175     226.016
  C      587.432    -639.932     228.272
  N      585.540    -640.773     232.967
  C      585.740    -641.606     231.914
  N      586.224    -641.282     230.692
  C      586.552    -639.997     230.618
  C      586.408    -639.039     231.614
  C      585.874    -639.468     232.835
  N      585.673    -638.624     233.911
  N      586.841    -637.799     231.166
  C      587.238    -638.004     229.926
  N      587.078    -639.314     229.554
  O      591.659    -638.296     229.719
  O      592.780    -636.474     228.329
  H      587.358    -640.709     225.893
  H      592.438    -638.769     229.400
  H      585.454    -642.637     232.053
  H      587.650    -637.269     229.282
  H      587.128    -640.991     228.346
  H      585.898    -638.679     227.253
  H      587.997    -637.409     227.248
  H      589.280    -639.943     226.095
  H      591.278    -639.084     227.431
  H      585.324    -639.011     234.771
  H      585.944    -637.658     233.820
  H      590.851    -638.116     226.016
  P      588.411    -636.572     224.764
  C      589.585    -635.768     222.584
  O      588.723    -636.720     223.204
  O      589.841    -636.479     225.469
  O      587.517    -635.423     225.138
  H      590.050    -635.526     225.674
  H      589.938    -636.194     221.639
  H      590.446    -635.557     223.246
  H      589.033    -634.855     222.392
  H      590.846    -635.290     231.957
  H      592.398    -635.836     231.371
  H      591.144    -636.997     231.735

 3  4  5  6  7  8  9  10  11  12  22  25  29  30  31  32 0
 6-311+G(2d,p)
 ****
 33  36  37 0
 6-311+G(2d,p)
 ****
 1  2  13  14  15  16  17  18  19  20  21  23  24  26 0
 3-21G
 ****
 27  28  34  35  38  39  40  41  42  43  44  45  46  47  48 0
 3-21G
 ****


