%nproc=1
%NoSave
%Mem=1900MB
#P OB98/GEN NMR

erre ene a

0 1
  C       61.733      40.195      23.961
  O       62.178      38.955      24.487
  P       61.746      37.574      23.810
  C       59.511      36.214      23.593
  O       60.209      37.308      24.145
  C       58.417      35.776      24.576
  O       59.009      35.333      25.814
  C       57.458      36.920      24.893
  O       56.319      36.867      24.049
  C       57.137      36.687      26.357
  O       56.118      35.679      26.495
  C       58.489      36.158      26.892
  N       59.527      37.143      27.254
  C       59.541      37.688      28.535
  O       58.747      37.378      29.417
  N       60.502      38.641      28.765
  C       61.449      39.049      27.872
  O       62.136      40.056      28.001
  C       61.551      38.248      26.648
  C       60.589      37.364      26.389
  O       62.510      36.483      24.696
  O       62.067      37.442      22.358
  H       55.950      35.569      27.448
  H       63.330      36.193      24.253
  H       60.429      39.141      29.645
  H       62.374      38.444      25.974
  H       60.623      36.786      25.469
  H       58.340      35.511      27.764
  H       56.739      37.587      26.822
  H       57.973      37.885      24.797
  H       57.869      34.929      24.143
  H       60.202      35.387      23.399
  H       59.066      36.495      22.633
  P       55.832      38.191      23.294
  C       55.853      40.601      24.168
  O       55.533      39.254      24.457
  O       54.734      38.000      22.301
  O       57.173      38.732      22.602
  H       57.198      38.450      21.664
  H       55.441      41.236      24.955
  H       55.424      40.900      23.206
  H       56.939      40.725      24.145
  H       62.129      40.995      24.551
  H       60.664      40.229      23.984
  H       62.071      40.296      22.951

 3  4  5  6  7  8  9  10  11  12  13  23  28  29  30  31  32 0
 6-311+G(2d,p)
 ****
 33  34 0
 6-311+G(2d,p)
 ****
 1  2  14  15  16  17  18  19  20  21  22  24  25  26  27 0
 3-21G
 ****
 35  36  37  38  39  40  41  42  43  44  45 0
 3-21G
 ****


