%nproc=1
%NoSave
%Mem=1900MB
#P OB98/GEN NMR

erre ene a

0 1
  C      366.210    -802.738     707.866
  O      364.807    -802.534     708.057
  P      364.070    -803.386     709.208
  C      362.635    -805.075     707.832
  O      363.796    -804.854     708.633
  C      362.204    -806.546     707.904
  O      363.164    -807.409     707.258
  C      362.058    -807.071     709.321
  O      360.794    -806.735     709.870
  C      362.134    -808.575     709.086
  O      360.863    -809.058     708.621
  C      363.190    -808.669     707.968
  N      366.788    -812.176     708.558
  C      365.530    -812.269     707.985
  N      365.178    -813.487     707.500
  N      364.690    -811.281     707.906
  C      365.176    -810.128     708.418
  C      366.393    -809.912     709.021
  C      367.308    -811.016     709.117
  O      368.437    -811.004     709.629
  N      366.523    -808.600     709.434
  C      365.390    -808.021     709.073
  N      364.526    -808.923     708.474
  O      362.609    -802.726     709.235
  O      364.738    -803.312     710.539
  H      360.938    -810.025     708.514
  H      362.216    -802.836     710.120
  H      367.396    -812.967     708.610
  H      365.143    -806.984     709.221
  H      362.947    -809.457     707.250
  H      362.373    -809.122     709.997
  H      365.804    -814.284     707.471
  H      362.895    -806.739     709.959
  H      364.284    -813.571     707.040
  H      361.233    -806.639     707.371
  H      362.831    -804.787     706.789
  H      361.837    -804.403     708.174
  P      360.710    -805.422     710.815
  C      360.625    -806.724     713.077
  O      361.352    -805.858     712.216
  O      359.146    -805.312     711.121
  O      361.250    -804.177     710.203
  H      358.894    -804.374     711.246
  H      361.262    -807.021     713.900
  H      360.281    -807.604     712.536
  H      359.745    -806.189     713.495
  H      366.557    -802.108     707.074
  H      366.390    -803.762     707.613
  H      366.732    -802.496     708.768

 3  4  5  6  7  8  9  10  11  12  23  26  30  31 0
 6-311+G(2d,p)
 ****
 33  35  36  37  38 0
 6-311+G(2d,p)
 ****
 1  2  13  14  15  16  17  18  19  20  21  22  24  25 0
 3-21G
 ****
 27  28  29  32  34  39  40  41  42  43  44  45  46  47  48  49 0
 3-21G
 ****


