%nproc=1
%NoSave
%Mem=1900MB
#P OB98/GEN NMR

erre ene a

0 1
  C      674.905    -447.642    -690.751
  O      674.095    -448.500    -691.529
  H      675.582    -447.098    -691.412
  H      675.498    -448.227    -690.050
  H      674.296    -446.914    -690.207
  P      672.819    -449.191    -690.852
  C      670.968    -448.027    -692.232
  O      671.677    -449.233    -691.980
  C      670.171    -448.114    -693.532
  O      671.101    -448.072    -694.657
  C      669.344    -449.410    -693.677
  O      668.188    -449.094    -694.441
  C      670.291    -450.289    -694.466
  O      669.611    -451.378    -695.057
  C      670.898    -449.270    -695.443
  N      672.129    -449.743    -696.067
  C      672.017    -450.365    -697.297
  O      670.912    -450.562    -697.859
  N      673.170    -450.822    -697.864
  C      674.415    -450.766    -697.303
  O      675.410    -451.211    -697.836
  C      674.481    -450.123    -695.962
  C      673.344    -449.645    -695.418
  O      672.384    -448.614    -689.545
  O      673.231    -450.738    -690.716
  H      669.333    -452.025    -694.364
  H      672.786    -451.133    -689.945
  H      673.092    -451.276    -698.761
  H      675.448    -450.071    -695.481
  H      673.372    -449.188    -694.434
  H      670.183    -449.028    -696.241
  H      671.069    -450.719    -693.818
  H      669.060    -449.844    -692.708
  H      669.529    -447.232    -693.609
  H      671.714    -447.221    -692.296
  H      670.291    -447.812    -691.389
  P      666.901    -450.060    -694.504
  C      665.134    -448.611    -693.285
  O      665.573    -449.152    -694.534
  O      666.887    -451.122    -693.432
  O      666.939    -450.715    -695.961
  H      666.510    -451.597    -695.930
  H      664.248    -448.031    -693.439
  H      665.902    -447.988    -692.877
  H      664.924    -449.410    -692.605

 6  7  8  9  10  11  12  13  14  15  16  26  31  32  33  34  35 0
 6-311+G(2d,p)
 ****
 36  37 0
 6-311+G(2d,p)
 ****
 1  2  3  4  5  17  18  19  20  21  22  23  24  25 0
 3-21G
 ****
 27  28  29  30  38  39  40  41  42  43  44  45 0
 3-21G
 ****


