%nproc=1
%NoSave
%Mem=1900MB
#P OB98/GEN NMR

erre ene a

0 1
  C      731.221    -412.100     583.727
  O      732.231    -412.037     584.709
  H      731.602    -412.669     582.873
  H      730.966    -411.092     583.392
  H      730.325    -412.596     584.107
  P      731.840    -411.547     586.184
  C      733.437    -413.321     587.178
  O      732.128    -412.772     587.179
  C      733.887    -413.669     588.600
  O      733.858    -412.467     589.414
  C      732.939    -414.679     589.264
  O      733.602    -415.473     590.240
  C      731.924    -413.781     589.954
  O      731.252    -414.423     591.039
  C      732.811    -412.614     590.384
  N      729.192    -410.021     592.884
  C      729.490    -411.363     592.931
  N      728.731    -412.119     593.764
  N      730.435    -411.920     592.218
  C      731.066    -411.067     591.386
  C      730.841    -409.714     591.223
  C      729.816    -409.097     592.046
  O      729.490    -407.919     592.019
  N      731.663    -409.179     590.268
  C      732.393    -410.194     589.849
  N      732.078    -411.358     590.519
  O      730.239    -411.489     586.153
  O      732.429    -410.234     586.609
  H      730.781    -413.732     591.545
  H      729.908    -410.895     586.848
  H      728.477    -409.632     593.477
  H      733.160    -410.145     589.087
  H      733.277    -412.813     591.360
  H      731.164    -413.491     589.226
  H      727.883    -411.764     594.177
  H      732.442    -415.329     588.543
  H      728.731    -413.130     593.586
  H      734.925    -414.016     588.590
  H      734.096    -412.569     586.734
  H      733.480    -414.203     586.531
  P      733.310    -417.054     590.268
  C      735.806    -417.883     589.966
  O      734.472    -417.832     589.498
  O      732.042    -417.224     589.305
  O      733.065    -417.612     591.633
  H      731.268    -417.546     589.812
  H      736.400    -418.458     589.287
  H      735.827    -418.339     590.934
  H      736.199    -416.890     590.031

 6  7  8  9  10  11  12  13  14  15  26  29  33  34 0
 6-311+G(2d,p)
 ****
 36  38  39  40  41 0
 6-311+G(2d,p)
 ****
 1  2  3  4  5  16  17  18  19  20  21  22  23  24  25 0
 3-21G
 ****
 27  28  30  31  32  35  37  42  43  44  45  46  47 0
 3-21G
 ****
 48  49 0
 3-21G
 ****


