%nproc=1
%NoSave
%Mem=1900MB
#P OB98/GEN NMR

erre ene a

0 1
  C      -67.018     142.202    -271.567
  O      -66.388     141.200    -272.351
  P      -65.964     139.793    -271.710
  C      -64.903     137.636    -272.630
  O      -65.445     138.914    -272.949
  C      -65.223     136.639    -273.741
  O      -66.664     136.538    -273.863
  C      -64.723     137.011    -275.134
  O      -63.375     136.651    -275.395
  C      -65.647     136.158    -276.003
  O      -65.179     134.796    -276.015
  C      -66.978     136.259    -275.252
  N      -71.235     137.246    -277.918
  C      -70.658     136.087    -277.530
  N      -69.513     135.906    -276.841
  C      -68.972     137.089    -276.506
  C      -69.445     138.357    -276.819
  C      -70.640     138.410    -277.564
  N      -71.241     139.597    -277.934
  N      -68.605     139.328    -276.312
  C      -67.654     138.666    -275.695
  N      -67.833     137.310    -275.773
  O      -67.010     139.158    -270.860
  O      -64.618     140.112    -270.907
  H      -65.729     134.313    -276.663
  H      -64.431     139.393    -270.273
  H      -71.179     135.180    -277.825
  H      -66.818     139.113    -275.186
  H      -67.544     135.321    -275.274
  H      -65.681     136.494    -277.044
  H      -64.902     138.071    -275.354
  H      -64.843     135.653    -273.440
  H      -65.361     137.292    -271.693
  H      -72.152     139.540    -278.350
  H      -70.886     140.455    -277.530
  H      -63.824     137.722    -272.472
  P      -62.653     137.368    -276.643
  C      -60.188     138.156    -277.071
  O      -61.153     137.673    -276.158
  O      -63.392     138.530    -277.203
  O      -62.461     136.166    -277.682
  H      -61.833     135.472    -277.404
  H      -59.297     138.452    -276.512
  H      -60.565     139.032    -277.610
  H      -59.918     137.371    -277.777
  H      -67.218     143.058    -272.176
  H      -66.373     142.481    -270.760
  H      -67.937     141.821    -271.174

 3  4  5  6  7  8  9  10  11  12  22  25  29  30  31  32 0
 6-311+G(2d,p)
 ****
 33  36  37 0
 6-311+G(2d,p)
 ****
 1  2  13  14  15  16  17  18  19  20  21  23  24  26 0
 3-21G
 ****
 27  28  34  35  38  39  40  41  42  43  44  45  46  47  48 0
 3-21G
 ****


