%nproc=1
%NoSave
%Mem=1900MB
#P OB98/GEN NMR

erre ene a

0 1
  C     -368.153     198.234     320.922
  O     -367.116     197.592     321.673
  P     -366.120     196.547     320.968
  C     -366.236     194.604     322.620
  O     -365.418     195.647     322.103
  C     -365.655     193.945     323.887
  O     -364.353     193.358     323.611
  C     -365.478     194.886     325.082
  O     -365.708     194.095     326.252
  C     -364.011     195.282     324.964
  O     -363.498     195.812     326.194
  C     -363.390     193.961     324.502
  N     -362.099     194.161     323.862
  C     -360.954     193.887     324.612
  O     -361.061     193.552     325.797
  N     -359.727     194.050     324.032
  C     -359.632     194.537     322.841
  N     -358.377     194.698     322.319
  C     -360.815     194.921     322.021
  C     -362.000     194.693     322.586
  O     -365.168     197.156     319.983
  O     -367.111     195.513     320.233
  H     -363.833     195.260     326.923
  H     -366.672     195.163     319.439
  H     -360.684     195.341     321.032
  H     -362.917     194.934     322.075
  H     -363.248     193.279     325.347
  H     -363.900     196.052     324.195
  H     -366.156     195.747     325.057
  H     -366.318     193.110     324.162
  H     -357.594     194.452     322.922
  H     -366.365     193.837     321.845
  H     -358.192     195.164     321.446
  H     -367.235     194.994     322.843
  P     -367.125     194.049     326.990
  C     -366.265     194.322     329.387
  O     -366.865     193.453     328.453
  O     -368.217     193.367     326.228
  O     -367.485     195.584     327.276
  H     -368.438     195.667     327.461
  H     -366.336     193.887     330.388
  H     -366.765     195.296     329.392
  H     -365.205     194.468     329.131
  H     -368.705     198.889     321.564
  H     -368.811     197.494     320.517
  H     -367.718     198.799     320.125

 3  4  5  6  7  8  9  10  11  12  13  23  27  28  29  30  32 0
 6-311+G(2d,p)
 ****
 34  35 0
 6-311+G(2d,p)
 ****
 1  2  14  15  16  17  18  19  20  21  22  24  25  26 0
 3-21G
 ****
 31  33  36  37  38  39  40  41  42  43  44  45  46 0
 3-21G
 ****


