%nproc=1
%NoSave
%Mem=1900MB
#P OB98/GEN NMR

erre ene a

0 1
  C       35.922     -51.644      16.533
  O       35.752     -53.005      16.878
  H       35.165     -51.374      15.792
  H       36.913     -51.491      16.097
  H       35.799     -51.009      17.414
  P       36.651     -53.565      18.079
  C       36.022     -56.084      17.694
  O       37.032     -55.084      17.720
  C       36.649     -57.451      17.432
  O       37.328     -57.479      16.160
  C       37.731     -57.834      18.428
  O       37.215     -58.146      19.702
  C       38.360     -59.018      17.709
  O       37.570     -60.203      17.873
  C       38.323     -58.535      16.237
  N       39.625     -58.087      15.764
  C       40.400     -59.052      15.108
  O       39.967     -60.193      14.951
  N       41.654     -58.703      14.675
  C       42.088     -57.496      14.855
  N       43.342     -57.217      14.411
  C       41.294     -56.442      15.517
  C       40.087     -56.805      15.947
  O       35.588     -53.736      19.261
  O       37.837     -52.729      18.431
  H       37.378     -60.275      18.828
  H       34.814     -54.269      19.015
  H       41.693     -55.446      15.638
  H       39.441     -56.094      16.444
  H       37.980     -59.341      15.576
  H       39.357     -59.246      18.089
  H       38.485     -57.040      18.491
  H       35.843     -58.196      17.407
  H       43.865     -57.970      13.980
  H       35.264     -55.855      16.939
  H       43.796     -56.324      14.525
  H       35.527     -56.078      18.671
  P       37.936     -57.605      21.028
  C       36.093     -58.460      22.609
  O       37.459     -58.567      22.223
  O       37.760     -56.149      21.297
  O       39.461     -58.049      20.825
  H       39.596     -59.009      20.732
  H       35.893     -59.144      23.407
  H       35.467     -58.695      21.774
  H       35.892     -57.461      22.936

 6  7  8  9  10  11  12  13  14  15  16  26  30  31  32  33  35 0
 6-311+G(2d,p)
 ****
 37  38 0
 6-311+G(2d,p)
 ****
 1  2  3  4  5  17  18  19  20  21  22  23  24  25 0
 3-21G
 ****
 27  28  29  34  36  39  40  41  42  43  44  45  46 0
 3-21G
 ****


