%nproc=1
%NoSave
%Mem=1900MB
#P OB98/GEN NMR

erre ene a

0 1
  C     -894.910    -354.104    -656.703
  O     -895.970    -353.823    -655.778
  P     -897.390    -354.569    -655.821
  C     -897.820    -355.857    -653.633
  O     -897.300    -355.917    -654.966
  C     -896.690    -355.720    -652.602
  O     -895.990    -354.472    -652.784
  C     -897.150    -355.702    -651.147
  O     -897.490    -357.014    -650.711
  C     -895.930    -355.091    -650.455
  O     -894.930    -356.077    -650.211
  C     -895.460    -354.070    -651.510
  N     -895.860    -352.709    -651.175
  C     -895.050    -352.029    -650.258
  O     -894.090    -352.602    -649.722
  N     -895.350    -350.727    -649.945
  C     -896.420    -350.175    -650.451
  N     -896.670    -348.877    -650.117
  C     -897.340    -350.884    -651.355
  C     -897.000    -352.133    -651.675
  O     -897.930    -354.758    -657.198
  O     -898.370    -353.635    -654.963
  H     -895.360    -356.821    -649.767
  H     -899.280    -353.721    -655.316
  H     -898.230    -350.401    -651.729
  H     -897.620    -352.727    -652.339
  H     -894.360    -354.103    -651.608
  H     -896.190    -354.643    -649.493
  H     -898.010    -355.031    -651.034
  H     -895.980    -356.538    -652.766
  H     -896.010    -348.421    -649.498
  H     -898.370    -356.792    -653.438
  H     -897.470    -348.354    -650.453
  H     -898.510    -355.011    -653.555
  P     -899.020    -357.455    -650.641
  C     -899.070    -359.661    -651.949
  O     -899.360    -358.275    -651.979
  O     -900.000    -356.375    -650.306
  O     -899.030    -358.604    -649.516
  H     -899.900    -358.579    -649.054
  H     -899.690    -360.160    -652.710
  H     -899.320    -360.091    -650.971
  H     -898.020    -359.828    -652.175
  H     -894.066    -353.486    -656.477
  H     -895.243    -353.903    -657.700
  H     -894.629    -355.133    -656.622

 3  4  5  6  7  8  9  10  11  12  13  23  27  28  29  30  32 0
 6-311+G(2d,p)
 ****
 34  35 0
 6-311+G(2d,p)
 ****
 1  2  14  15  16  17  18  19  20  21  22  24  25  26 0
 3-21G
 ****
 31  33  36  37  38  39  40  41  42  43  44  45  46 0
 3-21G
 ****


