%nproc=1
%NoSave
%Mem=1900MB
#P OB98/GEN NMR

erre ene a

0 1
  C      555.929    -760.255    -346.761
  O      556.223    -758.901    -347.071
  H      555.777    -760.807    -347.685
  H      554.998    -760.276    -346.177
  H      556.738    -760.709    -346.188
  P      556.859    -757.999    -345.917
  C      558.632    -756.096    -345.829
  O      557.823    -756.926    -346.647
  C      559.924    -755.721    -346.567
  O      560.747    -756.908    -346.714
  C      559.689    -755.143    -347.966
  O      560.666    -754.107    -348.209
  C      559.998    -756.304    -348.876
  O      560.371    -755.884    -350.194
  C      561.131    -756.969    -348.095
  N      563.964    -759.778    -351.150
  C      564.092    -758.466    -350.763
  N      565.110    -757.749    -351.315
  N      563.305    -757.881    -349.898
  C      562.341    -758.697    -349.414
  C      562.095    -760.011    -349.721
  C      562.971    -760.648    -350.687
  O      562.898    -761.809    -351.103
  N      560.989    -760.484    -349.059
  C      560.547    -759.437    -348.357
  N      561.352    -758.340    -348.556
  O      557.886    -759.000    -345.197
  O      555.886    -757.418    -344.945
  H      559.637    -755.352    -350.546
  H      557.463    -759.417    -344.432
  H      564.593    -760.170    -351.843
  H      559.674    -759.430    -347.743
  H      562.089    -756.444    -348.209
  H      559.136    -756.952    -348.956
  H      565.784    -758.134    -351.960
  H      558.690    -754.733    -348.121
  H      565.249    -756.804    -351.006
  H      560.487    -755.014    -345.940
  H      558.893    -756.651    -344.911
  H      558.066    -755.194    -345.552
  P      560.217    -752.568    -348.051
  C      561.372    -750.296    -347.552
  O      561.512    -751.645    -347.991
  O      559.634    -752.517    -346.545
  O      559.169    -752.147    -349.021
  H      558.901    -751.897    -346.502
  H      562.327    -749.814    -347.569
  H      560.984    -750.284    -346.555
  H      560.699    -749.777    -348.203

 6  7  8  9  10  11  12  13  14  15  26  29  33  34 0
 6-311+G(2d,p)
 ****
 36  38  39  40  41 0
 6-311+G(2d,p)
 ****
 1  2  3  4  5  16  17  18  19  20  21  22  23  24  25 0
 3-21G
 ****
 27  28  30  31  32  35  37  42  43  44  45  46  47 0
 3-21G
 ****
 48  49 0
 3-21G
 ****


