%nproc=1
%NoSave
%Mem=1900MB
#P OB98/GEN NMR

erre ene a

0 1
  C     -600.506    -177.846     608.936
  O     -599.391    -178.058     609.802
  P     -597.939    -177.675     609.234
  C     -596.823    -176.295     611.141
  O     -597.483    -176.274     609.891
  C     -597.591    -175.422     612.160
  O     -598.932    -175.869     612.335
  C     -596.964    -175.450     613.549
  O     -595.820    -174.612     613.599
  C     -598.125    -174.953     614.418
  O     -598.119    -173.512     614.547
  C     -599.367    -175.427     613.627
  N     -600.126    -176.451     614.324
  C     -600.949    -176.018     615.362
  O     -600.984    -174.820     615.657
  N     -601.679    -176.949     616.057
  C     -601.583    -178.202     615.759
  N     -602.323    -179.083     616.488
  C     -600.699    -178.715     614.690
  C     -599.996    -177.797     614.010
  O     -598.235    -177.271     607.703
  O     -596.926    -178.767     609.333
  H     -597.262    -173.295     614.968
  H     -597.469    -177.502     607.138
  H     -600.636    -179.768     614.476
  H     -599.321    -178.087     613.211
  H     -600.052    -174.581     613.451
  H     -598.076    -175.376     615.428
  H     -596.706    -176.472     613.827
  H     -597.607    -174.385     611.775
  H     -602.921    -178.710     617.223
  H     -595.793    -175.936     611.041
  H     -602.306    -180.073     616.335
  H     -596.765    -177.330     611.485
  P     -594.383    -175.321     613.557
  C     -593.426    -174.482     611.323
  O     -594.071    -175.544     612.000
  O     -594.728    -176.823     614.036
  O     -593.293    -174.713     614.379
  H     -593.911    -177.325     614.151
  H     -593.088    -174.827     610.348
  H     -592.549    -174.134     611.893
  H     -594.122    -173.643     611.181
  H     -601.406    -178.140     609.435
  H     -600.383    -178.429     608.047
  H     -600.564    -176.809     608.677

 3  4  5  6  7  8  9  10  11  12  13  21  23  27  28  29  30  32 0
 6-311+G(2d,p)
 ****
 34  35 0
 6-311+G(2d,p)
 ****
 1  2  14  15  16  17  18  19  20  22  24  25  26 0
 3-21G
 ****
 31  33  36  37  38  39  40  41  42  43  44  45  46 0
 3-21G
 ****


