%nproc=1
%NoSave
%Mem=1900MB
#P OB98/GEN NMR

erre ene a

0 1
  C      346.532     235.508     453.768
  O      345.142     235.757     453.661
  P      344.215     234.797     452.772
  C      344.435     233.785     450.420
  O      344.684     234.921     451.245
  C      344.653     234.131     448.953
  O      346.054     234.388     448.685
  C      344.268     233.021     447.985
  O      342.865     232.882     447.874
  C      344.977     233.481     446.717
  O      344.211     234.491     446.042
  C      346.278     234.088     447.289
  N      347.421     233.203     447.113
  C      347.776     232.914     445.788
  O      347.092     233.332     444.854
  N      348.897     232.156     445.568
  C      349.528     231.625     446.564
  N      350.666     230.935     446.284
  C      349.086     231.770     447.967
  C      348.047     232.584     448.167
  O      342.744     234.950     452.992
  O      344.696     233.323     453.169
  H      343.910     232.782     453.390
  H      344.696     234.706     445.221
  H      349.608     231.255     448.760
  H      347.670     232.767     449.168
  H      346.492     235.043     446.805
  H      345.130     232.661     446.007
  H      344.705     232.075     448.323
  H      344.091     235.047     448.728
  H      350.949     230.870     445.316
  H      343.401     233.466     450.573
  H      351.392     230.766     446.983
  H      345.093     232.966     450.725
  P      342.310     231.425     447.498
  C      343.140     229.752     445.701
  O      342.800     231.091     446.012
  O      340.734     231.656     447.339
  O      342.599     230.365     448.519
  H      340.251     230.877     447.671
  H      343.109     229.628     444.617
  H      342.444     229.044     446.163
  H      344.155     229.544     446.052
  H      346.979     236.248     454.398
  H      346.978     235.550     452.796
  H      346.689     234.538     454.191

 3  4  5  6  7  8  9  10  11  12  13  24  27  28  29  30  32 0
 6-311+G(2d,p)
 ****
 34  35 0
 6-311+G(2d,p)
 ****
 1  2  14  15  16  17  18  19  20  21  22  23  25  26 0
 3-21G
 ****
 31  33  36  37  38  39  40  41  42  43  44  45  46 0
 3-21G
 ****


