%nproc=1
%NoSave
%Mem=1900MB
#P OB98/GEN NMR

erre ene a

0 1
  C      164.253    -760.042      78.303
  O      163.086    -760.266      79.078
  P      161.777    -759.375      78.865
  C      159.845    -761.143      79.095
  O      160.628    -760.304      78.270
  C      159.657    -762.498      78.399
  O      160.927    -763.093      78.111
  C      158.852    -763.468      79.263
  O      157.476    -763.413      78.933
  C      159.511    -764.797      78.955
  O      158.993    -765.336      77.724
  C      160.988    -764.390      78.781
  N      161.817    -764.236      79.992
  C      162.108    -765.356      80.769
  O      161.744    -766.494      80.491
  N      162.835    -765.114      81.907
  C      163.319    -763.895      82.303
  O      163.746    -763.654      83.428
  C      163.208    -762.824      81.312
  C      162.457    -763.029      80.236
  O      162.174    -758.441      77.629
  O      161.343    -758.583      80.050
  H      159.446    -766.186      77.570
  H      162.453    -757.559      77.940
  H      162.936    -765.893      82.545
  H      163.702    -761.883      81.520
  H      162.339    -762.232      79.506
  H      161.513    -765.078      78.116
  H      159.287    -765.535      79.727
  H      159.006    -763.236      80.328
  H      159.137    -762.330      77.439
  H      158.875    -760.670      79.296
  H      160.341    -761.282      80.063
  P      156.443    -762.748      79.960
  C      155.489    -760.958      78.387
  O      156.330    -761.214      79.499
  O      156.736    -762.968      81.404
  O      155.037    -763.389      79.532
  H      154.822    -764.143      80.121
  H      155.355    -759.871      78.297
  H      154.512    -761.427      78.530
  H      155.955    -761.337      77.479
  H      165.013    -760.736      78.594
  H      164.602    -759.043      78.464
  H      164.024    -760.178      77.267

 3  4  5  6  7  8  9  10  11  12  13  23  28  29  30  31  32 0
 6-311+G(2d,p)
 ****
 33  34 0
 6-311+G(2d,p)
 ****
 1  2  14  15  16  17  18  19  20  21  22  24  25  26  27 0
 3-21G
 ****
 35  36  37  38  39  40  41  42  43  44  45 0
 3-21G
 ****


