%nproc=1
%NoSave
%Mem=1900MB
#P OB98/GEN NMR

erre ene a

0 1
  C     -124.778      37.588      41.322
  O     -125.849      37.652      40.376
  P     -126.779      36.372      40.102
  C     -128.513      36.341      41.986
  O     -128.266      36.688      40.626
  C     -129.731      37.058      42.585
  O     -129.537      38.495      42.590
  C     -131.057      36.787      41.865
  O     -132.065      36.814      42.881
  C     -131.178      37.987      40.946
  O     -132.508      38.192      40.486
  C     -130.609      39.097      41.841
  N     -130.154      40.251      41.072
  C     -130.857      41.444      41.244
  O     -131.851      41.480      41.973
  N     -130.452      42.560      40.550
  C     -129.490      42.459      39.686
  N     -129.147      43.591      39.010
  C     -128.774      41.200      39.408
  C     -129.148      40.149      40.138
  O     -126.213      35.076      40.581
  O     -126.949      36.356      38.507
  H     -133.099      38.246      41.266
  H     -127.062      35.434      38.204
  H     -127.998      41.160      38.659
  H     -128.682      39.180      40.012
  H     -131.365      39.438      42.562
  H     -130.538      37.845      40.066
  H     -131.072      35.837      41.327
  H     -129.808      36.747      43.634
  H     -129.681      44.430      39.211
  H     -127.624      36.595      42.575
  H     -128.498      43.601      38.240
  H     -128.647      35.257      42.058
  P     -132.554      35.486      43.630
  C     -130.573      35.142      45.213
  O     -131.931      35.529      45.105
  O     -132.302      34.215      42.883
  O     -134.122      35.711      43.885
  H     -134.541      34.849      44.077
  H     -130.205      35.413      46.206
  H     -129.962      35.646      44.459
  H     -130.486      34.059      45.083
  H     -124.280      38.534      41.362
  H     -124.083      36.831      41.023
  H     -125.170      37.350      42.289

 3  4  5  6  7  8  9  10  11  12  13  23  27  28  29  30  32 0
 6-311+G(2d,p)
 ****
 34  35 0
 6-311+G(2d,p)
 ****
 1  2  14  15  16  17  18  19  20  21  22  24  25  26 0
 3-21G
 ****
 31  33  36  37  38  39  40  41  42  43  44  45  46 0
 3-21G
 ****


