%nproc=1
%NoSave
%Mem=1900MB
#P OB98/GEN NMR

erre ene a

0 1
  C      327.969    -640.994     451.982
  O      328.958    -640.016     451.739
  H      327.754    -641.013     453.060
  H      328.299    -641.986     451.672
  H      327.039    -640.729     451.456
  P      329.624    -639.969     450.277
  C      330.615    -641.840     448.789
  O      330.427    -641.351     450.120
  C      330.940    -643.338     448.794
  O      329.833    -644.090     449.315
  C      331.210    -643.914     447.413
  O      332.410    -643.462     446.818
  C      330.992    -645.403     447.625
  O      332.148    -646.086     448.099
  C      329.896    -645.411     448.728
  N      328.597    -645.838     448.207
  C      328.313    -647.194     448.342
  O      329.092    -648.011     448.830
  N      327.109    -647.602     447.834
  C      326.201    -646.813     447.175
  O      325.163    -647.243     446.712
  C      326.581    -645.388     447.045
  C      327.731    -644.978     447.559
  O      330.451    -638.759     449.978
  O      328.379    -640.156     449.284
  H      332.821    -646.038     447.400
  H      328.611    -639.886     448.367
  H      326.877    -648.579     447.921
  H      325.882    -644.732     446.528
  H      328.038    -643.928     447.470
  H      330.174    -646.100     449.532
  H      330.674    -645.900     446.700
  H      330.398    -643.572     446.747
  H      331.798    -643.503     449.462
  H      331.448    -641.287     448.349
  H      329.710    -641.651     448.204
  P      332.703    -643.571     445.252
  C      332.250    -645.652     443.777
  O      332.944    -645.122     444.886
  O      333.634    -642.552     444.678
  O      331.240    -643.297     444.627
  H      331.360    -642.813     443.787
  H      332.507    -646.684     443.656
  H      332.521    -645.111     442.895
  H      331.196    -645.563     443.940

 6  7  8  9  10  11  12  13  14  15  16  26  31  32  33  34  35 0
 6-311+G(2d,p)
 ****
 36  37 0
 6-311+G(2d,p)
 ****
 1  2  3  4  5  17  18  19  20  21  22  23  24  25 0
 3-21G
 ****
 27  28  29  30  38  39  40  41  42  43  44  45 0
 3-21G
 ****


