%nproc=1
%NoSave
%Mem=1900MB
#P OB98/GEN NMR

erre ene a

0 1
  C     -541.113     219.678    -497.703
  O     -541.119     219.596    -496.294
  P     -540.045     220.379    -495.391
  C     -539.161     218.049    -494.769
  O     -539.554     219.327    -494.285
  C     -539.210     216.997    -493.664
  O     -538.388     217.422    -492.543
  C     -540.620     216.706    -493.120
  O     -540.644     215.320    -492.763
  C     -540.662     217.564    -491.868
  O     -541.680     217.155    -490.957
  C     -539.222     217.431    -491.365
  N     -538.860     218.494    -490.431
  C     -539.546     218.522    -489.209
  O     -540.461     217.723    -489.003
  N     -539.219     219.485    -488.295
  C     -538.347     220.398    -488.600
  N     -538.058     221.323    -487.654
  C     -537.698     220.476    -489.928
  C     -537.984     219.497    -490.772
  O     -540.515     221.690    -494.855
  O     -538.771     220.505    -496.349
  H     -541.580     217.671    -490.126
  H     -538.915     221.219    -497.019
  H     -537.023     221.294    -490.161
  H     -537.553     219.471    -491.773
  H     -539.080     216.454    -490.859
  H     -540.866     218.611    -492.142
  H     -541.419     216.935    -493.821
  H     -538.768     216.065    -494.052
  H     -538.518     221.225    -486.751
  H     -538.135     218.131    -495.134
  H     -537.341     222.025    -487.761
  H     -539.795     217.756    -495.617
  P     -541.083     214.196    -493.826
  C     -541.958     212.589    -492.041
  O     -541.006     212.782    -493.070
  O     -540.350     214.243    -495.136
  O     -542.647     214.425    -494.023
  H     -542.957     213.963    -494.820
  H     -542.009     211.516    -491.794
  H     -542.957     212.913    -492.358
  H     -541.658     213.138    -491.152
  H     -541.909     219.082    -498.098
  H     -540.178     219.317    -498.077
  H     -541.247     220.697    -498.002

 3  4  5  6  7  8  9  10  11  12  13  23  27  28  29  30  32 0
 6-311+G(2d,p)
 ****
 34  35 0
 6-311+G(2d,p)
 ****
 1  2  14  15  16  17  18  19  20  21  22  24  25  26 0
 3-21G
 ****
 31  33  36  37  38  39  40  41  42  43  44  45  46 0
 3-21G
 ****


