%nproc=1
%NoSave
%Mem=1900MB
#P OB98/GEN NMR

erre ene a

0 1
  C      -42.994     -91.376      -6.221
  O      -41.852     -91.012      -6.969
  P      -41.559     -89.485      -7.347
  C      -42.532     -89.840      -9.707
  O      -42.607     -89.084      -8.502
  C      -42.594     -88.907     -10.923
  O      -42.350     -89.695     -12.131
  C      -43.962     -88.214     -11.078
  O      -43.895     -86.791     -11.204
  C      -44.576     -88.944     -12.262
  O      -45.608     -88.224     -12.910
  C      -43.336     -89.281     -13.097
  N      -43.597     -90.308     -14.103
  C      -43.800     -89.879     -15.412
  O      -43.766     -88.705     -15.771
  N      -44.118     -90.851     -16.319
  C      -44.361     -92.162     -16.037
  O      -44.737     -92.962     -16.883
  C      -44.168     -92.550     -14.627
  C      -43.777     -91.629     -13.742
  O      -40.139     -89.167      -7.672
  O      -42.135     -88.680      -6.087
  H      -45.872     -88.726     -13.704
  H      -43.084     -88.815      -5.912
  H      -44.269     -90.553     -17.269
  H      -44.362     -93.582     -14.372
  H      -43.627     -91.885     -12.699
  H      -42.942     -88.396     -13.604
  H      -45.023     -89.874     -11.887
  H      -44.589     -88.372     -10.191
  H      -41.790     -88.173     -10.820
  H      -43.377     -90.528      -9.741
  H      -41.617     -90.441      -9.715
  P      -45.005     -85.767     -10.666
  C      -46.082     -85.472     -13.013
  O      -46.260     -85.824     -11.656
  O      -44.505     -84.393     -10.356
  O      -45.555     -86.478      -9.338
  H      -45.863     -85.801      -8.710
  H      -47.025     -85.079     -13.399
  H      -45.818     -86.367     -13.585
  H      -45.307     -84.713     -13.137
  H      -43.003     -92.436      -6.078
  H      -43.876     -91.080      -6.750
  H      -42.968     -90.888      -5.269

 3  4  5  6  7  8  9  10  11  12  13  23  28  29  30  31  32 0
 6-311+G(2d,p)
 ****
 33  34 0
 6-311+G(2d,p)
 ****
 1  2  14  15  16  17  18  19  20  21  22  24  25  26  27 0
 3-21G
 ****
 35  36  37  38  39  40  41  42  43  44  45 0
 3-21G
 ****


