%nproc=1
%NoSave
%Mem=1900MB
#P OB98/GEN NMR

erre ene a

0 1
  C     -318.137     259.431      51.437
  O     -317.755     258.346      50.573
  P     -316.215     258.207      50.126
  C     -316.542     259.061      47.681
  O     -315.887     259.221      48.929
  C     -316.131     260.158      46.688
  O     -316.624     261.455      47.136
  C     -314.611     260.296      46.491
  O     -314.397     260.702      45.132
  C     -314.262     261.437      47.436
  O     -313.022     262.057      47.129
  C     -315.487     262.335      47.236
  N     -315.686     263.324      48.299
  C     -315.966     264.636      47.929
  O     -316.006     265.035      46.770
  N     -316.188     265.513      48.962
  C     -316.109     265.224      50.296
  O     -316.283     266.065      51.172
  C     -315.775     263.832      50.626
  C     -315.586     262.961      49.630
  O     -316.217     256.787      49.377
  O     -315.225     258.196      51.244
  H     -312.855     262.723      47.822
  H     -315.451     256.258      49.673
  H     -316.408     266.461      48.712
  H     -315.711     263.560      51.675
  H     -315.349     261.924      49.853
  H     -315.402     262.855      46.273
  H     -314.203     261.048      48.457
  H     -314.064     259.374      46.702
  H     -316.621     259.949      45.732
  H     -317.628     259.112      47.837
  H     -316.301     258.074      47.276
  P     -313.746     259.645      44.113
  C     -311.336     260.136      45.008
  O     -312.341     259.188      44.736
  O     -313.310     260.628      42.919
  O     -314.672     258.556      43.671
  H     -312.876     261.434      43.238
  H     -311.754     261.047      45.443
  H     -310.802     260.380      44.090
  H     -310.630     259.701      45.723
  H     -319.187     259.377      51.635
  H     -317.912     260.362      50.961
  H     -317.596     259.361      52.358

 3  4  5  6  7  8  9  10  11  12  13  23  28  29  30  31  32 0
 6-311+G(2d,p)
 ****
 33  34 0
 6-311+G(2d,p)
 ****
 1  2  14  15  16  17  18  19  20  21  22  24  25  26 0
 3-21G
 ****
 27  35  36  37  38  39  40  41  42  43  44  45 0
 3-21G
 ****


