%nproc=1
%NoSave
%Mem=1900MB
#P OB98/GEN NMR

erre ene a

0 1
  C      410.900     191.300     -47.697
  O      410.161     190.969     -46.537
  H      411.946     191.001     -47.577
  H      410.478     190.766     -48.555
  H      410.843     192.378     -47.885
  P      410.648     191.622     -45.157
  C      408.349     190.876     -44.175
  O      409.766     190.911     -44.018
  C      407.737     190.052     -43.051
  O      408.047     188.653     -43.230
  C      408.255     190.423     -41.660
  O      407.600     191.556     -41.113
  C      407.910     189.160     -40.882
  O      406.504     189.142     -40.583
  C      408.251     188.064     -41.911
  N      411.353     184.062     -42.693
  C      410.036     184.246     -42.944
  N      409.288     185.350     -42.723
  C      410.043     186.334     -42.208
  C      411.391     186.291     -41.900
  C      412.058     185.086     -42.164
  N      413.397     184.879     -41.875
  N      411.804     187.496     -41.357
  C      410.726     188.251     -41.345
  N      409.621     187.586     -41.817
  O      410.041     193.108     -45.197
  O      412.117     191.597     -44.902
  H      406.305     189.969     -40.106
  H      410.462     193.669     -44.516
  H      409.509     183.394     -43.374
  H      410.680     189.279     -40.994
  H      407.594     187.194     -41.836
  H      408.449     189.088     -39.935
  H      409.343     190.553     -41.663
  H      406.642     190.158     -43.096
  H      408.108     190.420     -45.145
  H      413.749     183.939     -41.961
  H      413.890     185.588     -41.349
  H      407.961     191.905     -44.152
  P      408.304     192.303     -39.881
  C      408.025     194.836     -40.375
  O      407.538     193.695     -39.680
  O      409.723     192.746     -40.491
  O      408.464     191.461     -38.651
  H      410.420     192.736     -39.804
  H      407.415     195.683     -40.142
  H      407.993     194.653     -41.429
  H      409.034     195.031     -40.078

 6  7  8  9  10  11  12  13  14  15  25  28  32  33  34  35 0
 6-311+G(2d,p)
 ****
 36  39  40 0
 6-311+G(2d,p)
 ****
 1  2  3  4  5  16  17  18  19  20  21  22  23  24 0
 3-21G
 ****
 26  27  29  30  31  37  38  41  42  43  44  45  46  47 0
 3-21G
 ****
 48 0
 3-21G
 ****


