%nproc=1
%NoSave
%Mem=1900MB
#P OB98/GEN NMR

erre ene a

0 1
  C      754.073     -16.788     219.636
  O      753.188     -16.998     218.558
  H      753.642     -16.025     220.297
  H      755.035     -16.426     219.272
  H      754.212     -17.708     220.211
  P      753.499     -18.185     217.528
  C      754.355     -17.303     215.262
  O      754.699     -17.689     216.589
  C      755.376     -17.869     214.275
  O      756.707     -17.462     214.660
  C      755.405     -19.390     214.225
  O      754.303     -19.907     213.511
  C      756.760     -19.624     213.576
  O      756.688     -19.486     212.155
  C      757.611     -18.489     214.195
  N      758.472     -18.973     215.276
  C      759.734     -19.422     214.906
  O      760.147     -19.416     213.746
  N      760.502     -19.938     215.919
  C      760.082     -20.170     217.194
  O      760.708     -20.858     217.996
  C      758.767     -19.618     217.544
  C      758.023     -19.062     216.575
  O      752.318     -18.739     216.803
  O      754.202     -19.299     218.440
  H      753.554     -20.002     218.646
  H      757.610     -19.444     211.842
  H      761.402     -20.306     215.647
  H      758.423     -19.720     218.565
  H      757.031     -18.679     216.800
  H      758.247     -18.028     213.423
  H      757.139     -20.620     213.799
  H      755.424     -19.791     215.244
  H      755.163     -17.448     213.281
  H      754.358     -16.209     215.202
  H      753.350     -17.669     215.032
  P      753.679     -21.333     213.906
  C      754.886     -22.370     211.886
  O      754.613     -22.479     213.279
  O      752.224     -21.488     213.626
  O      753.979     -21.460     215.475
  H      753.158     -21.710     215.935
  H      755.513     -23.182     211.581
  H      755.383     -21.443     211.691
  H      753.967     -22.404     211.339

 6  7  8  9  10  11  12  13  14  15  16  27  31  32  33  34  35 0
 6-311+G(2d,p)
 ****
 36  37 0
 6-311+G(2d,p)
 ****
 1  2  3  4  5  17  18  19  20  21  22  23  24  25 0
 3-21G
 ****
 26  28  29  30  38  39  40  41  42  43  44  45 0
 3-21G
 ****


