%nproc=1
%NoSave
%Mem=1900MB
#P OB98/GEN NMR

erre ene a

0 1
  C      212.795    -369.155     -24.559
  O      213.181    -367.959     -25.245
  P      214.684    -367.884     -25.808
  C      214.401    -369.543     -27.814
  O      214.942    -369.294     -26.526
  C      215.476    -370.126     -28.729
  O      215.672    -371.537     -28.454
  C      215.143    -370.049     -30.212
  O      215.293    -368.726     -30.706
  C      216.124    -371.062     -30.783
  O      217.428    -370.475     -30.919
  C      216.146    -372.142     -29.682
  N      215.369    -373.327     -30.026
  C      215.995    -374.235     -30.873
  O      217.121    -374.058     -31.334
  N      215.270    -375.349     -31.194
  C      213.998    -375.627     -30.779
  O      213.403    -376.650     -31.090
  C      213.371    -374.606     -29.927
  C      214.072    -373.520     -29.593
  O      215.525    -367.967     -24.450
  O      214.934    -366.671     -26.638
  H      215.114    -368.540     -23.783
  H      217.792    -370.400     -30.013
  H      215.712    -376.029     -31.796
  H      212.352    -374.778     -29.603
  H      213.625    -372.754     -28.968
  H      217.176    -372.459     -29.481
  H      215.823    -371.422     -31.771
  H      214.114    -370.391     -30.381
  H      216.418    -369.604     -28.524
  H      214.025    -368.613     -28.249
  H      213.552    -370.227     -27.714
  P      214.041    -368.099     -31.494
  C      213.120    -366.619     -29.545
  O      212.942    -367.738     -30.385
  O      213.448    -369.397     -32.220
  O      214.409    -366.989     -32.421
  H      213.410    -370.171     -31.636
  H      212.149    -366.341     -29.124
  H      213.520    -365.764     -30.096
  H      213.799    -366.877     -28.728
  H      211.777    -369.070     -24.240
  H      213.426    -369.296     -23.706
  H      212.894    -369.992     -25.218

 3  4  5  6  7  8  9  10  11  12  13  24  28  29  30  31  32 0
 6-311+G(2d,p)
 ****
 33  34 0
 6-311+G(2d,p)
 ****
 1  2  14  15  16  17  18  19  20  21  22  23  25  26  27 0
 3-21G
 ****
 35  36  37  38  39  40  41  42  43  44  45 0
 3-21G
 ****


