%nproc=1
%NoSave
%Mem=1900MB
#P OB98/GEN NMR

erre ene a

0 1
  C     -118.241      98.403     511.663
  O     -118.912      97.299     512.240
  H     -117.187      98.156     511.518
  H     -118.689      98.615     510.689
  H     -118.335      99.289     512.295
  P     -118.629      96.999     513.790
  C     -117.552      94.725     513.150
  O     -118.528      95.399     513.930
  C     -117.781      93.215     513.198
  O     -117.481      92.744     514.544
  C     -119.215      92.779     512.857
  O     -119.153      91.573     512.091
  C     -119.817      92.474     514.215
  O     -120.893      91.543     514.144
  C     -118.601      91.947     514.971
  N     -120.076      89.343     519.079
  C     -119.714      88.947     517.843
  N     -119.279      89.706     516.819
  C     -119.172      90.992     517.192
  C     -119.498      91.547     518.415
  C     -119.990      90.660     519.389
  N     -120.428      91.064     520.630
  N     -119.305      92.915     518.394
  C     -118.896      93.182     517.169
  N     -118.801      92.051     516.405
  O     -120.037      97.346     514.470
  O     -117.508      97.767     514.401
  H     -121.393      91.573     514.984
  H     -120.065      98.294     514.696
  H     -119.790      87.880     517.648
  H     -118.686      94.167     516.776
  H     -118.384      90.896     514.743
  H     -120.193      93.399     514.667
  H     -119.787      93.537     512.307
  H     -117.062      92.732     512.525
  H     -116.559      94.947     513.551
  H     -120.864      90.371     521.219
  H     -120.474      92.051     520.835
  H     -117.602      95.082     512.116
  P     -119.439      91.679     510.517
  C     -121.801      90.602     510.740
  O     -120.521      90.563     510.124
  O     -118.087      91.134     509.860
  O     -119.761      93.062     510.054
  H     -117.913      91.589     509.018
  H     -122.399      89.795     510.371
  H     -122.278      91.532     510.512
  H     -121.690      90.508     511.800

 6  7  8  9  10  11  12  13  14  15  25  28  32  33  34  35 0
 6-311+G(2d,p)
 ****
 36  39  40 0
 6-311+G(2d,p)
 ****
 1  2  3  4  5  16  17  18  19  20  21  22  23  24 0
 3-21G
 ****
 26  27  29  30  31  37  38  41  42  43  44  45  46  47 0
 3-21G
 ****
 48 0
 3-21G
 ****


