%nproc=1
%NoSave
%Mem=1900MB
#P OB98/GEN NMR

erre ene a

0 1
  C      -34.966    -123.910      -2.497
  O      -33.606    -123.511      -2.292
  P      -32.683    -124.473      -1.396
  C      -31.290    -122.679      -0.091
  O      -31.336    -123.649      -1.128
  C      -30.677    -121.381      -0.614
  O      -31.677    -120.582      -1.292
  C      -30.105    -120.480       0.471
  O      -28.874    -120.984       0.966
  C      -30.004    -119.158      -0.277
  O      -28.822    -119.133      -1.092
  C      -31.261    -119.199      -1.173
  N      -32.343    -118.357      -0.680
  C      -32.570    -117.184      -1.394
  O      -31.896    -116.848      -2.366
  N      -33.591    -116.395      -0.937
  C      -34.368    -116.646       0.156
  O      -35.277    -115.907       0.512
  C      -34.049    -117.875       0.900
  C      -33.066    -118.663       0.456
  O      -32.267    -125.584      -2.467
  O      -33.384    -124.990      -0.185
  H      -32.146    -125.223      -3.363
  H      -28.804    -119.981      -1.579
  H      -33.780    -115.547      -1.449
  H      -34.628    -118.091       1.787
  H      -32.813    -119.572       0.992
  H      -31.010    -118.870      -2.189
  H      -29.955    -118.298       0.399
  H      -30.824    -120.388       1.294
  H      -29.895    -121.643      -1.341
  H      -30.685    -123.052       0.741
  H      -32.304    -122.515       0.285
  P      -28.574    -120.757       2.529
  C      -26.099    -119.988       2.193
  O      -26.995    -120.942       2.718
  O      -29.200    -122.089       3.160
  O      -29.147    -119.490       3.071
  H      -28.974    -122.890       2.659
  H      -25.138    -120.088       2.705
  H      -26.467    -118.969       2.339
  H      -25.949    -120.173       1.126
  H      -35.463    -123.184      -3.107
  H      -35.463    -123.982      -1.552
  H      -34.989    -124.862      -2.985

 3  4  5  6  7  8  9  10  11  12  13  24  28  29  30  31  32 0
 6-311+G(2d,p)
 ****
 33  34 0
 6-311+G(2d,p)
 ****
 1  2  14  15  16  17  18  19  20  21  22  23  25  26  27 0
 3-21G
 ****
 35  36  37  38  39  40  41  42  43  44  45 0
 3-21G
 ****


