%nproc=1
%NoSave
%Mem=1900MB
#P OB98/GEN NMR

erre ene a

0 1
  C       88.080    -193.527    -205.761
  O       88.201    -192.157    -206.152
  P       89.628    -191.712    -206.738
  C       88.600    -190.167    -208.546
  O       89.454    -190.267    -207.417
  C       87.124    -190.273    -208.143
  O       86.824    -189.387    -207.024
  C       86.148    -189.913    -209.269
  O       84.996    -190.754    -209.110
  C       85.765    -188.483    -208.939
  O       84.561    -188.097    -209.593
  C       85.692    -188.578    -207.415
  N       83.208    -184.229    -206.786
  C       82.938    -185.292    -207.623
  N       81.813    -185.208    -208.365
  N       83.703    -186.349    -207.721
  C       84.773    -186.313    -206.889
  C       85.138    -185.324    -206.005
  C       84.300    -184.147    -205.929
  O       84.491    -183.179    -205.204
  N       86.276    -185.666    -205.310
  C       86.626    -186.830    -205.833
  N       85.720    -187.291    -206.750
  O       89.834    -192.701    -207.981
  O       90.743    -191.823    -205.748
  H       84.425    -187.139    -209.421
  H       90.433    -193.429    -207.735
  H       82.593    -183.432    -206.761
  H       87.506    -187.391    -205.564
  H       84.775    -189.079    -207.075
  H       86.561    -187.797    -209.249
  H       81.155    -184.447    -208.302
  H       86.560    -190.022    -210.277
  H       81.571    -185.994    -208.957
  H       86.935    -191.300    -207.805
  H       88.830    -190.962    -209.260
  H       88.801    -189.225    -209.066
  P       84.707    -191.851    -210.239
  C       82.928    -193.341    -209.097
  O       83.195    -192.341    -210.059
  O       85.571    -193.112    -209.749
  O       85.104    -191.441    -211.622
  H       85.971    -193.554    -210.519
  H       81.895    -193.236    -208.759
  H       83.592    -193.263    -208.231
  H       83.052    -194.326    -209.556
  H       87.093    -193.706    -205.389
  H       88.795    -193.744    -204.995
  H       88.262    -194.157    -206.607

 3  4  5  6  7  8  9  10  11  12  23  26  30  31 0
 6-311+G(2d,p)
 ****
 33  35  36  37  38 0
 6-311+G(2d,p)
 ****
 1  2  13  14  15  16  17  18  19  20  21  22  24  25 0
 3-21G
 ****
 27  28  29  32  34  39  40  41  42  43  44  45  46  47  48  49 0
 3-21G
 ****


