%nproc=1
%NoSave
%Mem=1900MB
#P OB98/GEN NMR

erre ene a

0 1
  C      365.958    -414.658     129.516
  O      365.316    -414.332     128.297
  H      366.586    -415.536     129.354
  H      365.227    -414.886     130.294
  H      366.595    -413.827     129.834
  P      364.131    -413.251     128.335
  C      365.501    -411.366     127.229
  O      364.859    -411.819     128.418
  C      365.468    -409.842     127.128
  O      364.131    -409.345     127.334
  C      366.315    -409.132     128.173
  O      367.704    -409.326     128.044
  C      365.752    -407.720     128.123
  O      366.311    -406.948     127.063
  C      364.253    -407.997     127.846
  N      363.421    -407.788     129.026
  C      363.730    -406.678     129.800
  O      364.654    -405.909     129.550
  N      362.948    -406.492     130.909
  C      361.952    -407.317     131.333
  O      361.302    -407.109     132.352
  C      361.699    -408.499     130.491
  C      362.430    -408.680     129.394
  O      363.091    -413.465     129.396
  O      363.544    -413.270     126.846
  H      367.146    -406.567     127.396
  H      362.659    -412.835     126.804
  H      363.146    -405.683     131.479
  H      360.921    -409.182     130.804
  H      362.262    -409.540     128.754
  H      363.887    -407.332     127.050
  H      365.930    -407.172     129.052
  H      366.048    -409.534     129.160
  H      365.773    -409.563     126.112
  H      364.962    -411.793     126.377
  H      366.534    -411.725     127.212
  P      368.736    -409.191     129.250
  C      368.890    -411.516     130.439
  O      368.307    -410.218     130.406
  O      369.122    -407.803     129.650
  O      370.049    -409.907     128.632
  H      370.825    -409.438     128.999
  H      368.494    -412.064     131.268
  H      369.951    -411.428     130.544
  H      368.663    -412.032     129.529

 6  7  8  9  10  11  12  13  14  15  16  26  31  32  33  34  35 0
 6-311+G(2d,p)
 ****
 36  37 0
 6-311+G(2d,p)
 ****
 1  2  3  4  5  17  18  19  20  21  22  23  24  25 0
 3-21G
 ****
 27  28  29  30  38  39  40  41  42  43  44  45 0
 3-21G
 ****


