%nproc=1
%NoSave
%Mem=1900MB
#P OB98/GEN NMR

erre ene a

0 1
  C      190.119     592.670     422.430
  O      189.321     591.905     423.337
  P      187.720     592.014     423.198
  C      187.787     593.551     425.307
  O      187.122     592.506     424.599
  C      187.048     593.851     426.619
  O      185.673     594.184     426.374
  C      187.015     592.670     427.564
  O      188.262     592.513     428.237
  C      185.861     593.041     428.492
  O      186.311     593.794     429.628
  C      184.954     593.901     427.585
  N      183.671     593.252     427.293
  C      182.774     593.206     428.372
  O      183.073     593.663     429.472
  N      181.546     592.611     428.159
  C      181.269     592.087     427.004
  N      180.049     591.516     426.861
  C      182.209     592.097     425.867
  C      183.389     592.696     426.075
  O      187.252     590.491     423.102
  O      187.277     592.809     422.006
  H      185.501     594.162     430.043
  H      186.474     590.408     422.536
  H      181.946     591.647     424.916
  H      184.143     592.747     425.300
  H      184.748     594.862     428.066
  H      185.362     592.152     428.895
  H      186.769     591.753     427.013
  H      187.555     594.702     427.098
  H      179.423     591.527     427.659
  H      187.836     594.450     424.687
  H      179.729     591.070     426.004
  H      188.818     593.242     425.489
  P      189.444     591.782     427.453
  C      189.257     589.733     428.997
  O      190.100     590.786     428.521
  O      190.558     592.938     427.356
  O      189.127     591.209     426.104
  H      191.301     592.637     426.802
  H      189.884     589.022     429.542
  H      188.789     589.215     428.163
  H      188.500     590.139     429.676
  H      191.155     592.501     422.637
  H      189.896     593.710     422.549
  H      189.903     592.371     421.426

 3  4  5  6  7  8  9  10  11  12  13  21  23  27  28  29  30  32 0
 6-311+G(2d,p)
 ****
 34  35 0
 6-311+G(2d,p)
 ****
 1  2  14  15  16  17  18  19  20  22  24  25  26 0
 3-21G
 ****
 31  33  36  37  38  39  40  41  42  43  44  45  46 0
 3-21G
 ****


