%nproc=1
%NoSave
%Mem=1900MB
#P OB98/GEN NMR

erre ene a

0 1
  C     -235.837     200.906     220.157
  O     -237.074     200.322     219.734
  P     -238.147     199.954     220.871
  C     -240.709     200.525     220.845
  O     -239.578     200.005     220.151
  C     -241.798     200.905     219.847
  O     -241.400     202.053     219.062
  C     -242.126     199.816     218.832
  O     -242.883     198.767     219.428
  C     -242.866     200.622     217.771
  O     -244.234     200.836     218.169
  C     -242.094     201.963     217.797
  N     -241.182     202.115     216.673
  C     -241.757     202.528     215.473
  O     -242.963     202.734     215.342
  N     -240.891     202.681     214.417
  C     -239.549     202.432     214.435
  O     -238.828     202.595     213.462
  C     -239.010     201.951     215.716
  C     -239.834     201.813     216.761
  O     -238.105     201.275     221.775
  O     -237.822     198.685     221.589
  H     -237.969     202.087     221.255
  H     -244.633     199.949     218.260
  H     -241.290     202.994     213.544
  H     -237.951     201.716     215.760
  H     -239.451     201.454     217.711
  H     -242.802     202.807     217.772
  H     -242.879     200.121     216.801
  H     -241.200     199.408     218.410
  H     -242.703     201.174     220.417
  H     -240.414     201.412     221.413
  H     -241.062     199.777     221.556
  P     -242.186     197.321     219.496
  C     -242.724     195.313     221.085
  O     -243.205     196.362     220.274
  O     -241.015     197.594     220.557
  O     -241.712     196.821     218.171
  H     -241.317     198.106     221.329
  H     -243.511     195.015     221.781
  H     -241.848     195.626     221.662
  H     -242.462     194.454     220.458
  H     -235.223     201.098     219.302
  H     -235.331     200.232     220.816
  H     -236.033     201.825     220.669

 3  4  5  6  7  8  9  10  11  12  13  24  28  29  30  31  32 0
 6-311+G(2d,p)
 ****
 33  34 0
 6-311+G(2d,p)
 ****
 1  2  14  15  16  17  18  19  20  21  22  23  25  26  27 0
 3-21G
 ****
 35  36  37  38  39  40  41  42  43  44  45 0
 3-21G
 ****


