%nproc=1
%NoSave
%Mem=1900MB
#P OB98/GEN NMR

erre ene a

0 1
  C     -137.312    -221.567     354.478
  O     -136.939    -220.314     353.915
  P     -136.760    -220.245     352.321
  C     -137.754    -217.877     351.927
  O     -136.585    -218.686     351.982
  C     -137.423    -216.428     352.258
  O     -137.277    -216.275     353.688
  C     -136.119    -215.923     351.663
  O     -136.268    -215.539     350.300
  C     -135.835    -214.713     352.543
  O     -136.603    -213.583     352.075
  C     -136.352    -215.180     353.918
  N     -134.586    -215.042     358.666
  C     -135.718    -214.463     358.124
  N     -136.500    -213.768     358.978
  N     -136.043    -214.551     356.861
  C     -135.191    -215.309     356.134
  C     -134.034    -215.934     356.557
  C     -133.658    -215.791     357.943
  O     -132.628    -216.225     358.466
  N     -133.445    -216.632     355.532
  C     -134.253    -216.456     354.504
  N     -135.305    -215.639     354.815
  O     -138.228    -220.579     351.770
  O     -135.736    -221.165     351.757
  H     -136.123    -213.212     351.306
  H     -138.170    -220.949     350.872
  H     -134.389    -214.962     359.648
  H     -134.105    -216.894     353.528
  H     -136.917    -214.382     354.420
  H     -134.782    -214.416     352.535
  H     -136.373    -213.774     359.979
  H     -135.319    -216.661     351.784
  H     -137.357    -213.368     358.604
  H     -138.264    -215.796     351.937
  H     -138.480    -218.253     352.660
  H     -138.195    -217.951     350.926
  P     -134.923    -215.441     349.426
  C     -135.497    -216.769     347.266
  O     -135.410    -215.506     347.909
  O     -134.227    -216.860     349.668
  O     -134.033    -214.303     349.796
  H     -133.258    -216.787     349.549
  H     -135.838    -217.541     347.962
  H     -134.519    -217.042     346.864
  H     -136.215    -216.703     346.442
  H     -137.395    -221.470     355.540
  H     -136.567    -222.299     354.244
  H     -138.254    -221.874     354.073

 3  4  5  6  7  8  9  10  11  12  23  26  30  31  33  0
 6-311+G(2d,p)
 ****
 35  36  37  38 0
 6-311+G(2d,p)
 ****
 1  2  13  14  15  16  17  18  19  20  21  22  24  25  27  28  29 0
 3-21G
 ****
 32  34  39  40  41  42  43  44  45  46  47  48  49 0
 3-21G
 ****


