%nproc=1
%NoSave
%Mem=1900MB
#P OB98/GEN NMR

erre ene a

0 1
  C     -502.503    -206.479    -224.261
  O     -503.512    -205.722    -223.623
  P     -503.060    -204.379    -222.857
  C     -504.511    -202.788    -224.310
  O     -503.202    -203.184    -223.918
  C     -504.599    -201.276    -224.511
  O     -504.471    -200.625    -223.224
  C     -503.521    -200.706    -225.440
  O     -504.116    -199.655    -226.200
  C     -502.516    -200.108    -224.481
  O     -501.742    -199.078    -225.099
  C     -503.420    -199.642    -223.335
  N     -502.693    -199.494    -222.076
  C     -502.999    -198.374    -221.299
  O     -503.793    -197.530    -221.716
  N     -502.368    -198.216    -220.092
  C     -501.431    -199.040    -219.744
  N     -500.832    -198.845    -218.535
  C     -500.991    -200.167    -220.596
  C     -501.671    -200.343    -221.727
  O     -501.479    -204.566    -222.714
  O     -503.728    -204.166    -221.536
  H     -502.357    -198.348    -225.344
  H     -501.151    -204.146    -221.897
  H     -500.179    -200.803    -220.275
  H     -501.437    -201.154    -222.396
  H     -503.891    -198.681    -223.581
  H     -501.825    -200.888    -224.131
  H     -503.104    -201.458    -226.113
  H     -505.597    -201.039    -224.895
  H     -501.144    -198.058    -217.978
  H     -505.219    -203.073    -223.524
  H     -500.095    -199.437    -218.182
  H     -504.788    -203.320    -225.228
  P     -503.469    -199.309    -227.626
  C     -504.708    -201.287    -228.703
  O     -503.454    -200.706    -228.422
  O     -501.919    -199.143    -227.241
  O     -503.973    -198.114    -228.364
  H     -501.418    -198.868    -228.026
  H     -504.555    -202.147    -229.356
  H     -505.359    -200.570    -229.204
  H     -505.174    -201.629    -227.771
  H     -502.941    -207.337    -224.726
  H     -501.782    -206.795    -223.536
  H     -502.022    -205.878    -225.004

 3  4  5  6  7  8  9  10  11  12  13  21  23  27  28  29  30  32 0
 6-311+G(2d,p)
 ****
 34  35 0
 6-311+G(2d,p)
 ****
 1  2  14  15  16  17  18  19  20  22  24  25  26 0
 3-21G
 ****
 31  33  36  37  38  39  40  41  42  43  44  45  46 0
 3-21G
 ****


