%nproc=1
%NoSave
%Mem=1900MB
#P OB98/GEN NMR

erre ene a

0 1
  C      110.608     609.026      44.013
  O      109.969     609.692      45.081
  H      111.690     609.105      44.150
  H      110.353     609.496      43.062
  H      110.332     607.967      43.997
  P      108.365     609.769      45.110
  C      107.901     612.279      44.807
  O      108.023     611.213      45.741
  C      107.497     613.580      45.503
  O      108.615     614.092      46.275
  C      107.062     614.690      44.533
  O      105.844     615.295      44.986
  C      108.194     615.708      44.618
  O      107.789     617.024      44.261
  C      108.636     615.518      46.076
  N      109.951     616.094      46.325
  C      109.992     617.146      47.250
  O      108.963     617.522      47.807
  N      111.190     617.777      47.483
  C      112.247     617.418      46.810
  N      113.397     618.102      47.071
  C      112.236     616.331      45.804
  C      111.070     615.722      45.614
  O      107.695     608.614      45.778
  O      107.933     609.950      43.580
  H      107.081     617.310      44.883
  H      107.000     609.655      43.473
  H      113.140     616.085      45.272
  H      110.965     614.909      44.892
  H      107.915     615.968      46.769
  H      109.003     615.408      43.936
  H      106.915     614.338      43.506
  H      106.700     613.355      46.226
  H      113.352     618.838      47.764
  H      107.157     612.001      44.052
  H      114.265     617.936      46.597
  H      108.872     612.425      44.316
  P      104.838     615.816      43.855
  C      104.149     617.775      45.414
  O      103.713     616.715      44.566
  O      104.051     614.490      43.415
  O      105.530     616.459      42.699
  H      104.321     614.231      42.509
  H      103.298     618.284      45.815
  H      104.742     618.463      44.849
  H      104.735     617.373      46.215

 6  7  8  9  10  11  12  13  14  15  16  26  30  31  32  33  35 0
 6-311+G(2d,p)
 ****
 37  38 0
 6-311+G(2d,p)
 ****
 1  2  3  4  5  17  18  19  20  21  22  23  24  25 0
 3-21G
 ****
 27  28  29  34  36  39  40  41  42  43  44  45  46 0
 3-21G
 ****


