%nproc=1
%NoSave
%Mem=1900MB
#P OB98/GEN NMR

erre ene a

0 1
  C       77.667     171.665    -196.716
  O       77.948     172.601    -197.742
  H       76.916     170.952    -197.071
  H       78.583     171.118    -196.479
  H       77.310     172.170    -195.814
  P       76.833     173.716    -198.045
  C       76.023     172.716    -200.301
  O       76.686     173.787    -199.646
  C       76.707     172.402    -201.634
  O       77.781     171.442    -201.391
  C       75.770     171.797    -202.698
  O       76.130     172.342    -203.977
  C       76.120     170.319    -202.674
  O       75.831     169.666    -203.905
  C       77.611     170.370    -202.339
  N       77.894     165.379    -203.284
  C       77.667     166.438    -204.090
  N       77.664     167.748    -203.765
  C       77.996     167.920    -202.470
  C       78.256     166.937    -201.526
  C       78.181     165.610    -201.976
  N       78.340     164.519    -201.147
  N       78.500     167.510    -200.291
  C       78.357     168.807    -200.479
  N       78.052     169.104    -201.778
  O       77.598     175.077    -197.673
  O       75.554     173.572    -197.287
  H       75.887     168.699    -203.771
  H       77.482     175.268    -196.723
  H       77.456     166.206    -205.128
  H       78.435     169.564    -199.713
  H       78.232     170.583    -203.216
  H       75.551     169.825    -201.875
  H       74.708     171.983    -202.506
  H       77.177     173.320    -202.008
  H       74.983     173.001    -200.494
  H       78.162     163.603    -201.537
  H       78.445     164.668    -200.152
  H       76.031     171.832    -199.651
  P       74.937     172.825    -204.935
  C       76.332     172.522    -207.123
  O       75.577     173.399    -206.289
  O       74.381     174.133    -204.199
  O       73.864     171.800    -205.127
  H       73.422     174.219    -204.349
  H       76.685     173.059    -207.978
  H       75.711     171.711    -207.442
  H       77.166     172.138    -206.574

 6  7  8  9  10  11  12  13  14  15  25  28  32  33  34  35 0
 6-311+G(2d,p)
 ****
 36  39  40 0
 6-311+G(2d,p)
 ****
 1  2  3  4  5  16  17  18  19  20  21  22  23  24 0
 3-21G
 ****
 26  27  29  30  31  37  38  41  42  43  44  45  46  47 0
 3-21G
 ****
 48 0
 3-21G
 ****


