%nproc=1
%NoSave
%Mem=1900MB
#P OB98/GEN NMR

erre ene a

0 1
  C     -420.612    -711.659    -403.955
  O     -420.050    -710.853    -404.967
  H     -420.563    -711.119    -403.006
  H     -420.043    -712.592    -403.858
  H     -421.661    -711.883    -404.180
  P     -420.006    -711.480    -406.444
  C     -420.185    -710.534    -408.857
  O     -420.153    -710.249    -407.461
  C     -419.901    -709.274    -409.667
  O     -420.774    -708.198    -409.253
  C     -418.474    -708.747    -409.540
  O     -417.592    -709.442    -410.404
  C     -418.660    -707.291    -409.927
  O     -418.704    -707.131    -411.358
  C     -420.014    -706.960    -409.293
  N     -418.207    -703.095    -406.584
  C     -418.170    -703.317    -407.945
  N     -417.506    -702.411    -408.692
  N     -418.721    -704.359    -408.525
  C     -419.323    -705.198    -407.655
  C     -419.448    -705.075    -406.290
  C     -418.862    -703.909    -405.660
  O     -418.911    -703.610    -404.473
  N     -420.148    -706.125    -405.746
  C     -420.413    -706.904    -406.782
  N     -419.923    -706.393    -407.958
  O     -421.421    -712.231    -406.578
  O     -418.869    -712.407    -406.709
  H     -417.858    -707.434    -411.744
  H     -421.318    -713.000    -407.159
  H     -417.779    -702.274    -406.200
  H     -420.957    -707.838    -406.732
  H     -420.591    -706.247    -409.895
  H     -417.832    -706.672    -409.570
  H     -416.808    -701.814    -408.284
  H     -418.133    -708.811    -408.494
  H     -417.454    -702.584    -409.684
  H     -420.132    -709.495    -410.714
  H     -421.182    -710.911    -409.111
  H     -419.440    -711.306    -409.084
  P     -416.097    -709.723    -409.886
  C     -414.416    -711.686    -410.185
  O     -415.768    -711.245    -410.262
  O     -416.264    -709.768    -408.296
  O     -415.090    -708.711    -410.317
  H     -415.395    -709.659    -407.866
  H     -414.361    -712.717    -410.465
  H     -414.059    -711.568    -409.183
  H     -413.812    -711.104    -410.849

 6  7  8  9  10  11  12  13  14  15  26  29  33  34 0
 6-311+G(2d,p)
 ****
 36  38  39  40  41 0
 6-311+G(2d,p)
 ****
 1  2  3  4  5  16  17  18  19  20  21  22  23  24  25 0
 3-21G
 ****
 27  28  30  31  32  35  37  42  43  44  45  46  47 0
 3-21G
 ****
 48  49 0
 3-21G
 ****


