%nproc=1
%NoSave
%Mem=1900MB
#P OB98/GEN NMR

erre ene a

0 1
  C      -12.023      39.095      60.434
  O      -12.672      39.993      61.311
  H      -11.735      39.635      59.529
  H      -12.698      38.279      60.159
  H      -11.125      38.690      60.908
  P      -13.277      39.364      62.661
  C      -15.589      39.504      61.461
  O      -14.662      38.704      62.179
  C      -16.179      38.707      60.303
  O      -15.163      38.411      59.318
  C      -16.761      37.352      60.699
  O      -18.037      37.445      61.309
  C      -16.835      36.692      59.334
  O      -17.937      37.242      58.589
  C      -15.481      37.121      58.728
  N      -14.407      36.157      58.987
  C      -13.566      35.851      57.911
  O      -13.738      36.372      56.810
  N      -12.565      34.928      58.098
  C      -12.402      34.376      59.259
  N      -11.396      33.468      59.382
  C      -13.254      34.678      60.422
  C      -14.225      35.566      60.219
  O      -13.768      40.648      63.480
  O      -12.376      38.451      63.421
  H      -17.888      36.857      57.695
  H      -14.293      40.365      64.268
  H      -13.088      34.182      61.368
  H      -14.892      35.840      61.028
  H      -15.564      37.267      57.644
  H      -16.991      35.614      59.382
  H      -16.068      36.785      61.328
  H      -16.933      39.336      59.815
  H      -10.866      33.238      58.551
  H      -15.061      40.385      61.080
  H      -11.284      32.878      60.195
  H      -16.395      39.831      62.124
  P      -18.184      36.864      62.799
  C      -20.042      35.348      61.786
  O      -18.940      35.457      62.677
  O      -19.283      37.820      63.455
  O      -16.915      36.841      63.592
  H      -19.105      37.955      64.406
  H      -20.432      34.352      61.822
  H      -19.719      35.569      60.790
  H      -20.804      36.041      62.075

 6  7  8  9  10  11  12  13  14  15  16  26  30  31  32  33  35 0
 6-311+G(2d,p)
 ****
 37  38 0
 6-311+G(2d,p)
 ****
 1  2  3  4  5  17  18  19  20  21  22  23  24  25 0
 3-21G
 ****
 27  28  29  34  36  39  40  41  42  43  44  45  46 0
 3-21G
 ****


