%nproc=1
%NoSave
%Mem=1900MB
#P OB98/GEN NMR

erre ene a

0 1
  C     -178.292      90.325     435.955
  O     -178.017      91.372     436.867
  H     -177.577      90.386     435.130
  H     -179.305      90.414     435.552
  H     -178.171      89.359     436.450
  P     -179.097      91.672     438.021
  C     -177.008      91.992     439.500
  O     -178.296      92.494     439.146
  C     -176.307      92.919     440.495
  O     -175.908      94.150     439.856
  C     -177.181      93.345     441.667
  O     -177.536      92.312     442.549
  C     -176.417      94.553     442.197
  O     -175.343      94.176     443.059
  C     -175.858      95.162     440.888
  N     -176.567      96.371     440.489
  C     -176.175      97.547     441.119
  O     -175.293      97.593     441.984
  N     -176.847      98.677     440.752
  C     -177.887      98.733     439.868
  O     -178.464      99.786     439.593
  C     -178.285      97.459     439.265
  C     -177.619      96.348     439.594
  O     -179.831      90.474     438.545
  O     -180.049      92.783     437.372
  H     -174.649      93.787     442.496
  H     -180.892      92.870     437.885
  H     -176.564      99.542     441.181
  H     -179.116      97.464     438.566
  H     -177.895      95.389     439.159
  H     -174.798      95.419     441.013
  H     -177.061      95.231     442.757
  H     -178.126      93.733     441.260
  H     -175.397      92.414     440.846
  H     -176.414      91.930     438.585
  H     -177.111      90.987     439.922
  P     -179.046      91.947     442.930
  C     -178.591      89.371     442.815
  O     -179.069      90.478     443.571
  O     -180.087      92.286     441.914
  O     -179.293      92.883     444.221
  H     -180.232      93.155     444.200
  H     -178.681      88.477     443.396
  H     -177.564      89.529     442.561
  H     -179.169      89.274     441.920

 6  7  8  9  10  11  12  13  14  15  16  26  31  32  33  34  35 0
 6-311+G(2d,p)
 ****
 36  37 0
 6-311+G(2d,p)
 ****
 1  2  3  4  5  17  18  19  20  21  22  23  24  25 0
 3-21G
 ****
 27  28  29  30  38  39  40  41  42  43  44  45 0
 3-21G
 ****


