%nproc=1
%NoSave
%Mem=1900MB
#P OB98/GEN NMR

erre ene a

0 1
  C     -136.585      24.288     -64.003
  O     -135.434      25.059     -63.723
  H     -136.323      23.471     -64.678
  H     -136.961      23.864     -63.068
  H     -137.367      24.907     -64.451
  P     -134.887      26.015     -64.891
  C     -133.627      27.370     -63.068
  O     -133.549      26.706     -64.322
  C     -132.526      28.424     -62.953
  O     -131.259      27.745     -62.724
  C     -132.366      29.309     -64.203
  O     -132.076      30.644     -63.777
  C     -131.134      28.731     -64.882
  O     -130.462      29.682     -65.703
  C     -130.317      28.272     -63.677
  N     -125.616      27.629     -65.512
  C     -126.235      28.698     -64.967
  N     -127.478      28.770     -64.450
  C     -128.072      27.563     -64.476
  C     -127.570      26.380     -64.992
  C     -126.278      26.447     -65.548
  N     -125.668      25.378     -66.169
  N     -128.505      25.368     -64.883
  C     -129.559      25.938     -64.331
  N     -129.347      27.264     -64.070
  O     -135.957      27.208     -64.886
  O     -134.763      25.382     -66.238
  H     -129.644      29.275     -66.053
  H     -136.705      26.979     -65.467
  H     -125.655      29.622     -64.953
  H     -130.504      25.445     -64.133
  H     -129.765      29.093     -63.202
  H     -131.427      27.880     -65.508
  H     -133.242      29.310     -64.860
  H     -132.725      29.040     -62.069
  H     -133.498      26.633     -62.266
  H     -124.790      25.546     -66.635
  H     -126.189      24.525     -66.300
  H     -134.611      27.837     -62.967
  P     -133.323      31.604     -63.458
  C     -132.154      33.371     -61.940
  O     -132.772      33.085     -63.191
  O     -133.796      31.116     -62.006
  O     -134.429      31.512     -64.460
  H     -134.764      31.218     -61.917
  H     -131.844      34.395     -61.921
  H     -131.301      32.738     -61.810
  H     -132.853      33.195     -61.149

 6  7  8  9  10  11  12  13  14  15  25  28  32  33  34  35 0
 6-311+G(2d,p)
 ****
 36  39  40 0
 6-311+G(2d,p)
 ****
 1  2  3  4  5  16  17  18  19  20  21  22  23  24 0
 3-21G
 ****
 26  27  29  30  31  37  38  41  42  43  44  45  46  47 0
 3-21G
 ****
 48 0
 3-21G
 ****


