%nproc=1
%NoSave
%Mem=1900MB
#P OB98/GEN NMR

erre ene a

0 1
  C        3.398    -555.994    1138.933
  O        2.230    -556.604    1139.450
  H        4.058    -555.737    1139.769
  H        3.137    -555.074    1138.399
  H        3.926    -556.678    1138.261
  P        1.201    -557.210    1138.379
  C        2.406    -559.547    1138.500
  O        1.916    -558.479    1137.690
  C        2.354    -560.857    1137.713
  O        1.015    -561.159    1137.282
  C        3.158    -560.836    1136.429
  O        4.552    -560.843    1136.651
  C        2.636    -562.094    1135.754
  O        3.245    -563.268    1136.297
  C        1.127    -562.031    1136.135
  N        0.298    -561.595    1135.022
  C       -0.300    -562.613    1134.269
  O       -0.112    -563.794    1134.557
  N       -1.059    -562.264    1133.182
  C       -1.239    -561.013    1132.896
  N       -1.998    -560.730    1131.797
  C       -0.652    -559.904    1133.678
  C        0.093    -560.269    1134.722
  O        1.222    -556.116    1137.213
  O       -0.159    -557.521    1138.909
  H        3.080    -563.987    1135.669
  H        2.113    -555.914    1136.888
  H       -0.851    -558.877    1133.412
  H        0.565    -559.518    1135.345
  H        0.770    -563.018    1136.454
  H        2.830    -562.103    1134.679
  H        2.878    -559.968    1135.810
  H        2.685    -561.661    1138.392
  H       -2.367    -561.508    1131.267
  H        1.837    -559.625    1139.431
  H       -2.188    -559.795    1131.462
  H        3.444    -559.302    1138.774
  P        5.568    -560.550    1135.443
  C        6.003    -558.149    1136.254
  O        5.530    -558.967    1135.187
  O        5.375    -561.389    1134.227
  O        7.001    -560.738    1136.132
  H        7.188    -560.145    1136.886
  H        5.931    -557.119    1135.973
  H        7.024    -558.391    1136.463
  H        5.409    -558.323    1137.127

 6  7  8  9  10  11  12  13  14  15  16  26  30  31  32  33  35 0
 6-311+G(2d,p)
 ****
 37  38 0
 6-311+G(2d,p)
 ****
 1  2  3  4  5  17  18  19  20  21  22  23  24  25 0
 3-21G
 ****
 27  28  29  34  36  39  40  41  42  43  44  45  46 0
 3-21G
 ****


