%nproc=1
%NoSave
%Mem=1900MB
#P OB98/GEN NMR

erre ene a

0 1
  C     -790.876    -642.651    -236.605
  O     -790.285    -641.529    -237.236
  H     -790.685    -642.598    -235.529
  H     -790.440    -643.587    -236.977
  H     -791.955    -642.655    -236.769
  P     -790.289    -641.472    -238.837
  C     -792.496    -640.146    -239.090
  O     -791.832    -641.391    -239.252
  C     -792.697    -639.472    -240.446
  O     -793.255    -640.408    -241.387
  C     -793.670    -638.295    -240.388
  O     -793.067    -637.157    -239.813
  C     -794.038    -638.175    -241.859
  O     -793.030    -637.473    -242.592
  C     -794.104    -639.657    -242.290
  N     -795.473    -640.193    -242.288
  C     -795.900    -640.760    -243.479
  O     -795.151    -640.808    -244.459
  N     -797.184    -641.266    -243.551
  C     -797.962    -641.201    -242.510
  N     -799.212    -641.703    -242.630
  C     -797.531    -640.604    -241.225
  C     -796.290    -640.132    -241.182
  O     -789.501    -642.528    -239.552
  O     -789.755    -639.995    -239.155
  H     -793.185    -636.529    -242.433
  H     -788.781    -639.992    -239.241
  H     -798.200    -640.581    -240.375
  H     -795.899    -639.674    -240.274
  H     -793.689    -639.789    -243.296
  H     -794.985    -637.639    -241.992
  H     -794.580    -638.581    -239.838
  H     -791.715    -639.150    -240.822
  H     -799.466    -642.079    -243.536
  H     -791.869    -639.521    -238.442
  H     -799.861    -641.793    -241.863
  H     -793.471    -640.277    -238.590
  P     -793.919    -636.145    -238.917
  C     -792.856    -636.581    -236.601
  O     -793.969    -636.819    -237.449
  O     -795.240    -635.759    -239.484
  O     -792.924    -634.915    -238.695
  H     -792.849    -634.363    -239.523
  H     -793.008    -637.077    -235.665
  H     -792.753    -635.529    -236.435
  H     -791.968    -636.958    -237.064

 6  7  8  9  10  11  12  13  14  15  16  26  30  31  32  33  35 0
 6-311+G(2d,p)
 ****
 37  38 0
 6-311+G(2d,p)
 ****
 1  2  3  4  5  17  18  19  20  21  22  23  24  25 0
 3-21G
 ****
 27  28  29  34  36  39  40  41  42  43  44  45  46 0
 3-21G
 ****


