%nproc=1
%NoSave
%Mem=1900MB
#P OB98/GEN NMR

erre ene a

0 1
  C     -293.789    -446.036    -480.957
  O     -294.556    -445.266    -481.890
  P     -295.038    -445.980    -483.242
  C     -294.091    -444.472    -485.138
  O     -295.220    -444.852    -484.364
  C     -294.324    -443.105    -485.791
  O     -294.174    -442.027    -484.827
  C     -293.354    -442.793    -486.924
  O     -293.778    -443.386    -488.144
  C     -293.487    -441.278    -487.012
  O     -294.675    -440.927    -487.745
  C     -293.626    -440.885    -485.535
  N     -289.806    -437.561    -485.689
  C     -290.946    -437.641    -486.464
  N     -291.098    -436.694    -487.411
  N     -291.858    -438.570    -486.314
  C     -291.588    -439.437    -485.319
  C     -290.489    -439.463    -484.486
  C     -289.481    -438.446    -484.658
  O     -288.439    -438.335    -484.022
  N     -290.564    -440.510    -483.599
  C     -291.713    -441.100    -483.879
  N     -292.360    -440.497    -484.928
  O     -296.556    -446.388    -482.906
  O     -294.223    -447.166    -483.639
  H     -294.591    -439.987    -487.984
  H     -296.810    -447.171    -483.428
  H     -289.130    -436.832    -485.848
  H     -292.102    -441.960    -483.351
  H     -294.321    -440.040    -485.395
  H     -292.641    -440.819    -487.535
  H     -290.460    -435.920    -487.544
  H     -292.334    -443.069    -486.654
  H     -291.944    -436.715    -487.967
  H     -295.355    -443.085    -486.176
  H     -293.882    -445.221    -485.907
  H     -293.203    -444.466    -484.491
  P     -292.647    -443.780    -489.218
  C     -293.887    -443.295    -491.440
  O     -293.419    -444.261    -490.525
  O     -292.028    -445.122    -488.600
  O     -291.598    -442.733    -489.424
  H     -291.083    -445.191    -488.834
  H     -294.239    -443.803    -492.341
  H     -293.083    -442.604    -491.722
  H     -294.720    -442.737    -491.007
  H     -293.543    -445.429    -480.111
  H     -292.889    -446.374    -481.428
  H     -294.362    -446.880    -480.635

 3  4  5  6  7  8  9  10  11  12  23  26  30  31 0
 6-311+G(2d,p)
 ****
 33  35  36  37  38 0
 6-311+G(2d,p)
 ****
 1  2  13  14  15  16  17  18  19  20  21  22  24  25 0
 3-21G
 ****
 27  28  29  32  34  39  40  41  42  43  44  45  46  47  48  49 0
 3-21G
 ****


