%nproc=1
%NoSave
%Mem=1900MB
#P OB98/GEN NMR

erre ene a

0 1
  C     -418.731     156.225    -898.750
  O     -418.145     157.323    -899.470
  P     -418.469     158.809    -898.930
  C     -416.073     159.789    -898.610
  O     -417.243     159.284    -897.990
  C     -415.120     160.436    -897.590
  O     -415.586     161.777    -897.240
  C     -415.013     159.663    -896.260
  O     -413.713     159.868    -895.730
  C     -416.025     160.355    -895.390
  O     -415.798     160.073    -893.990
  C     -415.820     161.798    -895.810
  N     -417.351     165.811    -893.160
  C     -416.116     165.202    -893.220
  N     -415.126     165.762    -892.480
  N     -415.853     164.136    -893.920
  C     -416.919     163.709    -894.640
  C     -418.212     164.221    -894.660
  C     -418.471     165.386    -893.840
  O     -419.560     165.958    -893.750
  N     -419.038     163.492    -895.500
  C     -418.258     162.526    -895.950
  N     -416.955     162.639    -895.500
  O     -419.656     158.558    -897.890
  O     -418.855     159.767    -900.000
  H     -414.929     160.464    -893.760
  H     -420.486     158.911    -898.270
  H     -417.485     166.637    -892.580
  H     -418.567     161.745    -896.620
  H     -414.945     162.257    -895.330
  H     -417.045     160.010    -895.640
  H     -415.238     166.620    -891.960
  H     -415.197     158.573    -896.360
  H     -414.204     165.355    -892.540
  H     -414.117     160.540    -898.060
  H     -416.343     160.527    -899.380
  H     -415.579     158.969    -899.160
  P     -412.492     159.156    -896.490
  C     -411.295     161.422    -896.920
  O     -411.871     160.266    -897.480
  O     -413.175     158.123    -897.470
  O     -411.486     158.488    -895.590
  H     -412.590     157.395    -897.690
  H     -410.200     161.345    -896.950
  H     -411.612     161.586    -895.880
  H     -411.599     162.302    -897.520
  H     -418.440     155.303    -899.207
  H     -419.797     156.313    -898.772
  H     -418.392     156.243    -897.735

 3  4  5  6  7  8  9  10  11  12  23  26  30  31 0
 6-311+G(2d,p)
 ****
 33  35  36  37  38 0
 6-311+G(2d,p)
 ****
 1  2  13  14  15  16  17  18  19  20  21  22  24  25 0
 3-21G
 ****
 27  28  29  32  34  39  40  41  42  43  44  45  46  47  48  49 0
 3-21G
 ****


