%nproc=1
%NoSave
%Mem=1900MB
#P OB98/GEN NMR

erre ene a

0 1
  C      578.387     484.407     542.164
  O      577.628     485.197     541.245
  P      578.314     486.501     540.616
  C      579.856     485.729     538.692
  O      578.574     486.241     539.050
  C      579.923     485.460     537.175
  O      581.305     485.205     536.802
  C      579.134     484.233     536.703
  O      577.762     484.408     536.347
  C      579.884     483.874     535.419
  O      579.391     484.689     534.331
  C      581.326     484.249     535.732
  N      585.656     481.695     534.758
  C      585.120     482.811     534.207
  N      583.959     483.421     534.526
  C      583.347     482.779     535.528
  C      583.770     481.628     536.179
  C      584.980     481.076     535.754
  N      585.521     479.933     536.298
  N      582.853     481.258     537.148
  C      581.890     482.152     537.070
  N      582.144     483.103     536.114
  O      579.474     487.066     541.370
  O      577.096     487.548     540.578
  H      580.029     484.582     533.597
  H      577.439     488.441     540.795
  H      585.700     483.269     533.410
  H      580.998     482.157     537.675
  H      581.828     484.722     534.874
  H      579.724     482.831     535.120
  H      579.221     483.404     537.432
  H      579.580     486.351     536.641
  H      580.047     484.801     539.240
  H      586.369     479.570     535.905
  H      585.003     479.425     537.008
  H      580.606     486.458     539.013
  P      576.591     483.652     537.140
  C      575.429     485.790     538.082
  O      575.373     484.686     537.210
  O      576.996     483.071     538.456
  O      576.086     482.570     536.068
  H      575.641     482.954     535.299
  H      574.616     486.487     537.829
  H      576.380     486.312     537.990
  H      575.290     485.449     539.110
  H      577.797     483.578     542.494
  H      578.662     485.006     543.007
  H      579.270     484.046     541.679

 3  4  5  6  7  8  9  10  11  12  22  25  29  30  31  32 0
 6-311+G(2d,p)
 ****
 33  36  37 0
 6-311+G(2d,p)
 ****
 1  2  13  14  15  16  17  18  19  20  21  23  24  26 0
 3-21G
 ****
 27  28  34  35  38  39  40  41  42  43  44  45  46  47  48 0
 3-21G
 ****


