%nproc=1
%NoSave
%Mem=1900MB
#P OB98/GEN NMR

erre ene a

0 1
  C     -447.911    -731.135    -214.304
  O     -447.470    -731.429    -212.994
  H     -447.159    -731.474    -215.011
  H     -448.038    -730.058    -214.423
  H     -448.851    -731.649    -214.519
  P     -448.412    -731.025    -211.759
  C     -448.411    -733.464    -210.888
  O     -449.182    -732.382    -211.386
  C     -449.094    -734.790    -211.190
  O     -448.999    -735.127    -212.588
  C     -448.511    -736.003    -210.472
  O     -448.825    -736.052    -209.080
  C     -449.161    -737.120    -211.250
  O     -450.536    -737.248    -210.856
  C     -449.043    -736.573    -212.700
  N     -447.851    -737.076    -213.388
  C     -448.069    -738.057    -214.375
  O     -449.199    -738.469    -214.603
  N     -446.981    -738.573    -215.040
  C     -445.771    -738.171    -214.731
  N     -444.738    -738.706    -215.421
  C     -445.511    -737.147    -213.689
  C     -446.581    -736.658    -213.071
  O     -449.285    -729.825    -211.962
  O     -447.404    -730.873    -210.522
  H     -450.953    -736.377    -210.981
  H     -447.935    -730.610    -209.723
  H     -444.491    -736.866    -213.459
  H     -446.460    -735.907    -212.298
  H     -449.935    -736.831    -213.288
  H     -448.683    -738.087    -211.101
  H     -447.417    -736.051    -210.619
  H     -450.160    -734.661    -210.955
  H     -444.962    -739.417    -216.121
  H     -448.289    -733.324    -209.801
  H     -443.768    -738.518    -215.195
  H     -447.417    -733.467    -211.350
  P     -447.604    -735.851    -208.044
  C     -448.762    -734.232    -206.354
  O     -447.809    -734.397    -207.393
  O     -446.342    -735.665    -208.997
  O     -447.435    -736.952    -207.051
  H     -445.853    -736.520    -209.081
  H     -448.771    -733.210    -206.037
  H     -448.501    -734.860    -205.528
  H     -449.733    -734.502    -206.714

 6  7  8  9  10  11  12  13  14  15  16  26  30  31  32  33  35 0
 6-311+G(2d,p)
 ****
 37  38 0
 6-311+G(2d,p)
 ****
 1  2  3  4  5  17  18  19  20  21  22  23  24  25 0
 3-21G
 ****
 27  28  29  34  36  39  40  41  42  43  44  45  46 0
 3-21G
 ****


