%nproc=1
%NoSave
%Mem=1900MB
#P OB98/GEN NMR

erre ene a

0 1
  C       30.961    -194.530     100.588
  O       32.281    -194.908     100.916
  P       33.543    -194.129     100.314
  C       34.123    -195.965      98.602
  O       33.705    -194.617      98.790
  C       33.583    -196.508      97.273
  O       34.271    -197.763      96.967
  C       32.068    -196.797      97.313
  O       31.322    -196.188      96.258
  C       32.016    -198.315      97.358
  O       30.781    -198.861      96.935
  C       33.257    -198.693      96.539
  N       33.656    -200.084      96.736
  C       32.771    -201.067      96.299
  O       31.693    -200.839      95.758
  N       33.133    -202.359      96.561
  C       34.208    -202.756      97.302
  O       34.418    -203.926      97.582
  C       35.086    -201.670      97.769
  C       34.791    -200.407      97.453
  O       34.793    -194.219     101.121
  O       32.992    -192.636     100.127
  H       30.106    -198.627      97.601
  H       32.224    -192.553      99.534
  H       32.500    -203.079      96.253
  H       35.940    -201.953      98.367
  H       35.420    -199.585      97.782
  H       33.096    -198.526      95.471
  H       32.163    -198.625      98.401
  H       31.614    -196.392      98.227
  H       33.825    -195.783      96.494
  H       33.731    -196.572      99.422
  H       35.214    -196.025      98.642
  P       29.726    -196.201      96.135
  C       29.722    -197.906      94.175
  O       29.285    -197.591      95.480
  O       29.127    -194.986      95.503
  O       29.235    -196.342      97.654
  H       28.364    -195.917      97.757
  H       28.985    -198.563      93.706
  H       30.676    -198.441      94.233
  H       29.840    -197.011      93.560
  H       30.270    -195.173     101.092
  H       30.819    -194.612      99.531
  H       30.794    -193.518     100.893

 3  4  5  6  7  8  9  10  11  12  13  23  28  29  30  31  32 0
 6-311+G(2d,p)
 ****
 33  34 0
 6-311+G(2d,p)
 ****
 1  2  14  15  16  17  18  19  20  21  22  24  25  26  27 0
 3-21G
 ****
 35  36  37  38  39  40  41  42  43  44  45 0
 3-21G
 ****


