%nproc=1
%NoSave
%Mem=1900MB
#P OB98/GEN NMR

erre ene a

0 1
  C     -149.759       9.596     -82.267
  O     -148.833       9.501     -83.332
  H     -149.774       8.644     -81.730
  H     -150.761       9.800     -82.653
  H     -149.454      10.386     -81.575
  P     -148.685      10.791     -84.273
  C     -146.169      10.522     -84.816
  O     -147.503      10.411     -85.289
  C     -145.182      10.062     -85.885
  O     -145.070       8.628     -85.876
  C     -145.568      10.452     -87.307
  O     -145.159      11.781     -87.585
  C     -144.764       9.442     -88.112
  O     -143.401       9.894     -88.231
  C     -144.822       8.181     -87.234
  N     -145.939       4.121     -90.169
  C     -144.886       4.965     -90.171
  N     -144.679       6.055     -89.401
  C     -145.702       6.235     -88.548
  C     -146.844       5.458     -88.434
  C     -146.943       4.350     -89.292
  N     -148.021       3.492     -89.289
  N     -147.678       5.951     -87.453
  C     -147.022       6.973     -86.944
  N     -145.838       7.209     -87.596
  O     -148.549      12.096     -83.565
  O     -149.989      10.650     -85.192
  H     -142.918       9.206     -88.726
  H     -150.132       9.719     -85.441
  H     -144.104       4.737     -90.890
  H     -147.348       7.561     -86.093
  H     -143.866       7.645     -87.232
  H     -145.145       9.314     -89.126
  H     -146.636      10.294     -87.496
  H     -144.193      10.465     -85.627
  H     -146.037       9.922     -83.909
  H     -148.099       2.847     -90.059
  H     -148.821       3.742     -88.726
  H     -145.993      11.573     -84.563
  P     -146.102      12.781     -88.411
  C     -146.023      14.611     -86.607
  O     -145.665      14.249     -87.935
  O     -147.556      12.475     -88.323
  O     -145.542      12.709     -89.907
  H     -146.203      13.069     -90.528
  H     -145.682      15.604     -86.404
  H     -145.570      13.930     -85.917
  H     -147.087      14.571     -86.501

 6  7  8  9  10  11  12  13  14  15  25  28  32  33  34  35 0
 6-311+G(2d,p)
 ****
 36  39  40 0
 6-311+G(2d,p)
 ****
 1  2  3  4  5  16  17  18  19  20  21  22  23  24 0
 3-21G
 ****
 26  27  29  30  31  37  38  41  42  43  44  45  46  47 0
 3-21G
 ****
 48 0
 3-21G
 ****


