%nproc=1
%NoSave
%Mem=1900MB
#P OB98/GEN NMR

erre ene a

0 1
  C      218.632    -278.981     -24.528
  O      219.226    -278.182     -23.533
  P      219.881    -276.756     -23.810
  C      217.806    -275.280     -24.408
  O      218.964    -275.970     -24.866
  C      217.667    -273.920     -25.103
  O      218.916    -273.200     -24.955
  C      217.415    -274.077     -26.614
  O      216.442    -273.178     -27.135
  C      218.819    -274.006     -27.198
  O      218.842    -273.678     -28.578
  C      219.496    -273.007     -26.263
  N      224.018    -271.678     -28.167
  C      222.777    -271.120     -28.402
  N      222.713    -270.226     -29.417
  N      221.696    -271.450     -27.740
  C      221.895    -272.439     -26.841
  C      223.078    -273.066     -26.517
  C      224.266    -272.668     -27.231
  O      225.363    -273.209     -27.134
  N      222.886    -274.070     -25.604
  C      221.586    -274.086     -25.403
  N      220.936    -273.129     -26.160
  O      221.364    -276.727     -24.006
  O      219.554    -275.977     -22.430
  H      219.774    -273.700     -28.873
  H      220.304    -275.372     -22.263
  H      224.798    -271.439     -28.768
  H      221.061    -274.770     -24.755
  H      219.305    -271.977     -26.569
  H      219.269    -275.002     -27.100
  H      223.489    -270.061     -30.033
  H      216.990    -275.063     -26.829
  H      221.784    -269.997     -29.771
  H      216.883    -273.338     -24.606
  H      217.938    -275.146     -23.328
  H      216.910    -275.891     -24.564
  P      215.461    -273.381     -28.375
  C      213.727    -275.058     -27.487
  O      214.861    -274.868     -28.310
  O      216.412    -273.437     -29.657
  O      214.435    -272.309     -28.539
  H      215.991    -272.960     -30.401
  H      213.596    -276.128     -27.318
  H      212.843    -274.660     -27.985
  H      213.867    -274.554     -26.521
  H      218.268    -279.886     -24.088
  H      219.358    -279.215     -25.278
  H      217.818    -278.449     -24.974

 3  4  5  6  7  8  9  10  11  12  23  26  30  31 0
 6-311+G(2d,p)
 ****
 33  35  36  37  38 0
 6-311+G(2d,p)
 ****
 1  2  13  14  15  16  17  18  19  20  21  22  24  25 0
 3-21G
 ****
 27  28  29  32  34  39  40  41  42  43  44  45  46  47  48  49 0
 3-21G
 ****


