%nproc=1
%NoSave
%Mem=1900MB
#P OB98/GEN NMR

erre ene a

0 1
  C       48.967     253.018      78.943
  O       49.370     251.798      79.535
  H       49.503     253.837      79.430
  H       47.892     253.165      79.088
  H       49.206     253.023      77.874
  P       48.833     250.451      78.843
  C       47.182     249.857      80.798
  O       48.334     249.516      80.049
  C       46.965     248.860      81.938
  O       48.036     249.020      82.906
  C       45.637     249.046      82.677
  O       45.153     247.761      83.069
  C       46.032     249.831      83.918
  O       45.094     249.673      84.976
  C       47.437     249.265      84.195
  N       48.251     250.168      85.006
  C       48.482     249.787      86.334
  O       47.993     248.745      86.772
  N       49.216     250.614      87.143
  C       49.634     251.752      86.689
  N       50.339     252.538      87.549
  C       49.379     252.215      85.310
  C       48.698     251.378      84.529
  O       50.197     249.761      78.369
  O       47.839     250.669      77.754
  H       44.293     250.202      84.765
  H       50.899     249.787      79.039
  H       49.740     253.181      84.981
  H       48.473     251.633      83.499
  H       47.364     248.302      84.718
  H       46.097     250.900      83.681
  H       44.884     249.558      82.074
  H       47.052     247.843      81.536
  H       50.472     252.191      88.492
  H       46.297     249.865      80.155
  H       50.664     253.467      87.321
  H       47.322     250.867      81.199
  P       43.609     247.396      82.840
  C       43.306     246.071      85.041
  O       43.262     246.038      83.618
  O       43.131     247.458      81.428
  O       42.852     248.503      83.731
  H       42.071     248.805      83.227
  H       43.055     245.106      85.428
  H       42.605     246.794      85.403
  H       44.291     246.339      85.361

 6  7  8  9  10  11  12  13  14  15  16  26  30  31  32  33  35 0
 6-311+G(2d,p)
 ****
 37  38 0
 6-311+G(2d,p)
 ****
 1  2  3  4  5  17  18  19  20  21  22  23  24  25 0
 3-21G
 ****
 27  28  29  34  36  39  40  41  42  43  44  45  46 0
 3-21G
 ****


