%nproc=1
%NoSave
%Mem=1900MB
#P OB98/GEN NMR

erre ene a

0 1
  C       24.159     -71.613       7.859
  O       24.284     -71.047       9.148
  H       24.031     -72.693       7.961
  H       25.068     -71.420       7.284
  H       23.291     -71.203       7.335
  P       24.151     -69.450       9.253
  C       26.223     -68.856       7.808
  O       25.636     -68.859       9.100
  C       27.270     -67.751       7.706
  O       27.854     -67.732       6.386
  C       26.729     -66.347       7.956
  O       26.660     -66.053       9.345
  C       27.796     -65.508       7.274
  O       28.965     -65.430       8.118
  C       28.108     -66.344       6.025
  N       27.358     -62.961       2.324
  C       28.238     -62.929       3.387
  N       29.025     -61.835       3.483
  N       28.337     -63.878       4.281
  C       27.472     -64.899       4.073
  C       26.549     -65.041       3.061
  C       26.462     -63.992       2.072
  O       25.706     -63.978       1.105
  N       25.847     -66.212       3.180
  C       26.329     -66.765       4.274
  N       27.314     -66.007       4.856
  O       23.809     -69.227      10.803
  O       23.113     -68.840       8.375
  H       29.286     -66.341       8.246
  H       22.854     -69.048      10.892
  H       27.315     -62.198       1.670
  H       26.005     -67.713       4.682
  H       29.160     -66.270       5.728
  H       27.471     -64.483       7.088
  H       28.985     -61.058       2.842
  H       25.764     -66.189       7.459
  H       29.681     -61.792       4.253
  H       28.075     -67.986       8.414
  H       25.440     -68.687       7.061
  H       26.689     -69.829       7.626
  P       25.211     -65.890      10.015
  C       25.242     -63.336       9.567
  O       25.102     -64.372      10.529
  O       25.354     -66.734      11.367
  O       24.070     -66.373       9.189
  H       24.797     -67.536      11.319
  H       25.147     -62.386      10.050
  H       24.480     -63.435       8.823
  H       26.204     -63.407       9.104

 6  7  8  9  10  11  12  13  14  15  26  29  33  34 0
 6-311+G(2d,p)
 ****
 36  38  39  40  41 0
 6-311+G(2d,p)
 ****
 1  2  3  4  5  16  17  18  19  20  21  22  23  24  25 0
 3-21G
 ****
 27  28  30  31  32  35  37  42  43  44  45  46  47 0
 3-21G
 ****
 48  49 0
 3-21G
 ****


