%nproc=1
%NoSave
%Mem=1900MB
#P OB98/GEN NMR

erre ene a

0 1
  C      133.023     113.566     -75.803
  O      132.425     114.595     -75.043
  H      132.260     113.112     -76.441
  H      133.426     112.798     -75.138
  H      133.820     113.967     -76.436
  P      133.400     115.555     -74.207
  C      132.716     117.562     -75.710
  O      133.773     116.782     -75.175
  C      133.244     118.462     -76.828
  O      133.833     117.619     -77.861
  C      132.165     119.323     -77.497
  O      132.745     120.588     -77.840
  C      131.857     118.557     -78.772
  O      131.296     119.356     -79.803
  C      133.242     118.003     -79.118
  N      133.180     116.870     -80.038
  C      132.962     117.150     -81.384
  O      132.902     118.279     -81.864
  N      132.806     116.055     -82.197
  C      132.826     114.749     -81.802
  O      132.661     113.814     -82.576
  C      133.051     114.518     -80.369
  C      133.212     115.573     -79.566
  O      134.758     114.713     -74.136
  O      132.903     115.957     -72.858
  H      134.763     114.141     -73.345
  H      131.197     118.788     -80.594
  H      132.648     116.241     -83.174
  H      133.063     113.497     -80.017
  H      133.360     115.438     -78.498
  H      133.871     118.792     -79.548
  H      131.153     117.744     -78.554
  H      131.272     119.480     -76.885
  H      134.050     119.086     -76.425
  H      132.290     118.188     -74.919
  H      131.934     116.896     -76.092
  P      132.809     121.703     -76.690
  C      135.428     121.737     -76.708
  O      134.232     121.508     -75.978
  O      131.754     121.125     -75.638
  O      132.516     123.077     -77.194
  H      131.753     120.155     -75.596
  H      136.272     121.559     -76.075
  H      135.448     122.750     -77.052
  H      135.466     121.075     -77.547

 6  7  8  9  10  11  12  13  14  15  16  27  31  32  33  34  35 0
 6-311+G(2d,p)
 ****
 36  37 0
 6-311+G(2d,p)
 ****
 1  2  3  4  5  17  18  19  20  21  22  23  24  25 0
 3-21G
 ****
 26  28  29  30  38  39  40  41  42  43  44  45 0
 3-21G
 ****


