%nproc=1
%NoSave
%Mem=1900MB
#P OB98/GEN NMR

erre ene a

0 1
  C     -136.385    -430.529    -378.573
  O     -135.082    -430.120    -378.935
  H     -136.630    -430.097    -377.600
  H     -136.426    -431.617    -378.495
  H     -137.115    -430.179    -379.312
  P     -134.556    -430.576    -380.382
  C     -132.261    -431.543    -379.646
  O     -132.947    -430.496    -380.323
  C     -130.967    -431.017    -379.019
  O     -131.302    -430.140    -377.901
  C     -130.044    -432.116    -378.476
  O     -128.686    -431.699    -378.678
  C     -130.327    -432.086    -376.975
  O     -129.265    -432.654    -376.203
  C     -130.531    -430.589    -376.770
  N     -131.503    -426.906    -373.480
  C     -130.835    -426.875    -374.698
  N     -130.354    -425.672    -375.097
  N     -130.660    -427.925    -375.451
  C     -131.226    -429.052    -374.939
  C     -131.904    -429.215    -373.756
  C     -132.070    -428.043    -372.914
  O     -132.630    -428.015    -371.820
  N     -132.292    -430.523    -373.586
  C     -131.856    -431.143    -374.670
  N     -131.201    -430.294    -375.518
  O     -134.961    -429.333    -381.309
  O     -135.113    -431.859    -380.899
  H     -128.446    -432.156    -376.406
  H     -135.825    -429.490    -381.724
  H     -131.604    -426.068    -372.932
  H     -131.981    -432.198    -374.877
  H     -129.589    -430.032    -376.766
  H     -131.248    -432.641    -376.754
  H     -130.495    -424.819    -374.588
  H     -130.198    -433.109    -378.917
  H     -129.911    -425.619    -376.001
  H     -130.445    -430.401    -379.758
  H     -132.018    -432.334    -380.364
  H     -132.912    -431.958    -378.865
  P     -127.621    -432.801    -379.160
  C     -125.412    -432.597    -377.800
  O     -126.153    -432.196    -378.947
  O     -127.784    -432.773    -380.757
  O     -127.855    -434.166    -378.602
  H     -127.548    -433.646    -381.127
  H     -124.460    -432.109    -377.802
  H     -125.270    -433.657    -377.820
  H     -125.950    -432.326    -376.915

 6  7  8  9  10  11  12  13  14  15  26  29  33  34 0
 6-311+G(2d,p)
 ****
 36  38  39  40  41 0
 6-311+G(2d,p)
 ****
 1  2  3  4  5  16  17  18  19  20  21  22  23  24  25 0
 3-21G
 ****
 27  28  30  31  32  35  37  42  43  44  45  46  47 0
 3-21G
 ****
 48  49 0
 3-21G
 ****


