%nproc=1
%NoSave
%Mem=1900MB
#P OB98/GEN NMR

erre ene a

0 1
  C     -171.049     277.711     140.143
  O     -171.675     278.568     141.089
  P     -172.953     279.405     140.605
  C     -173.924     279.048     142.979
  O     -173.655     279.976     141.934
  C     -173.897     279.738     144.337
  O     -172.588     280.340     144.533
  C     -174.945     280.850     144.505
  O     -175.546     280.742     145.803
  C     -174.117     282.125     144.483
  O     -174.761     283.190     145.176
  C     -172.828     281.629     145.135
  N     -168.979     283.870     147.519
  C     -169.800     282.841     147.939
  N     -169.601     282.391     149.199
  N     -170.735     282.308     147.199
  C     -170.801     282.838     145.952
  C     -170.036     283.849     145.416
  C     -169.046     284.471     146.268
  O     -168.349     285.443     145.985
  N     -170.387     284.100     144.112
  C     -171.362     283.247     143.862
  N     -171.681     282.494     144.964
  O     -173.959     278.263     140.106
  O     -172.694     280.404     139.531
  H     -175.718     283.103     145.011
  H     -174.218     278.434     139.179
  H     -168.287     284.255     148.136
  H     -171.884     283.161     142.916
  H     -172.975     281.478     146.213
  H     -173.954     282.430     143.444
  H     -168.876     282.731     149.810
  H     -175.726     280.850     143.735
  H     -170.178     281.622     149.519
  H     -174.015     278.975     145.118
  H     -173.165     278.257     142.960
  H     -174.908     278.597     142.804
  P     -177.007     281.394     145.961
  C     -177.754     279.875     147.940
  O     -177.418     281.176     147.492
  O     -177.951     280.377     145.159
  O     -177.104     282.792     145.448
  H     -178.758     280.832     144.854
  H     -177.532     279.109     147.191
  H     -178.821     279.844     148.171
  H     -177.186     279.657     148.848
  H     -170.217     277.220     140.602
  H     -170.707     278.289     139.310
  H     -171.752     276.979     139.805

 3  4  5  6  7  8  9  10  11  12  23  26  30  31  33  0
 6-311+G(2d,p)
 ****
 35  36  37  38 0
 6-311+G(2d,p)
 ****
 1  2  13  14  15  16  17  18  19  20  21  22  24  25  27  28  29 0
 3-21G
 ****
 32  34  39  40  41  42  43  44  45  46  47  48  49 0
 3-21G
 ****


