%nproc=1
%NoSave
%Mem=1900MB
#P OB98/GEN NMR

erre ene a

0 1
  C       82.206     196.920     160.421
  O       82.634     195.783     159.692
  H       82.837     197.771     160.148
  H       82.301     196.752     161.498
  H       81.168     197.158     160.176
  P       81.962     194.368     160.034
  C       82.120     192.711     162.017
  O       82.636     193.891     161.406
  C       82.892     192.403     163.296
  O       84.211     191.916     162.978
  C       83.103     193.626     164.180
  O       81.913     193.959     164.872
  C       84.254     193.156     165.048
  O       83.798     192.305     166.107
  C       85.105     192.362     164.029
  N       86.209     193.144     163.481
  C       87.492     192.756     163.877
  O       87.648     191.801     164.640
  N       88.565     193.476     163.414
  C       88.377     194.482     162.617
  N       89.487     195.153     162.196
  C       87.044     194.917     162.163
  C       86.012     194.213     162.632
  O       81.976     193.334     158.948
  O       80.472     194.754     160.476
  H       83.176     192.846     166.635
  H       79.877     194.763     159.701
  H       86.936     195.755     161.495
  H       84.995     194.464     162.348
  H       85.520     191.458     164.492
  H       84.781     193.996     165.499
  H       83.452     194.470     163.579
  H       82.362     191.608     163.839
  H       90.382     194.826     162.539
  H       82.238     191.896     161.296
  H       89.469     195.891     161.508
  H       81.052     192.826     162.238
  P       81.402     195.479     164.927
  C       82.492     197.737     165.529
  O       82.615     196.317     165.563
  O       80.072     195.679     165.577
  O       81.429     195.926     163.386
  H       80.680     195.520     162.879
  H       83.356     198.181     165.979
  H       81.617     198.032     166.069
  H       82.411     198.064     164.513

 6  7  8  9  10  11  12  13  14  15  16  26  30  31  32  33  35 0
 6-311+G(2d,p)
 ****
 37  38 0
 6-311+G(2d,p)
 ****
 1  2  3  4  5  17  18  19  20  21  22  23  24  25 0
 3-21G
 ****
 27  28  29  34  36  39  40  41  42  43  44  45  46 0
 3-21G
 ****


