%nproc=1
%NoSave
%Mem=1900MB
#P OB98/GEN NMR

erre ene a

0 1
  C     -120.552     112.693     246.488
  O     -121.601     112.591     245.539
  P     -121.363     111.853     244.135
  C     -120.716     113.906     242.731
  O     -120.256     112.711     243.350
  C     -121.636     113.583     241.554
  O     -122.165     114.820     241.020
  C     -120.928     112.858     240.413
  O     -121.836     111.920     239.829
  C     -120.649     113.949     239.393
  O     -120.548     113.403     238.066
  C     -121.837     114.887     239.620
  N     -122.402     118.608     236.128
  C     -122.870     117.341     236.174
  N     -122.659     116.399     237.120
  C     -121.921     116.897     238.124
  C     -121.375     118.168     238.219
  C     -121.639     119.050     237.155
  N     -121.170     120.345     237.116
  N     -120.648     118.303     239.385
  C     -120.768     117.142     239.989
  N     -121.537     116.262     239.273
  O     -122.599     111.572     243.353
  O     -120.581     110.512     244.513
  H     -120.195     114.114     237.489
  H     -120.886     109.772     243.954
  H     -123.495     117.042     235.336
  H     -120.316     116.883     240.935
  H     -122.719     114.568     239.049
  H     -119.697     114.437     239.630
  H     -120.015     112.346     240.735
  H     -122.484     112.994     241.923
  H     -119.849     114.463     242.367
  H     -121.511     120.938     236.376
  H     -120.753     120.725     237.956
  H     -121.238     114.523     243.471
  P     -121.261     110.429     239.609
  C     -121.207     110.713     237.020
  O     -120.483     110.497     238.211
  O     -122.327     109.392     239.748
  O     -120.115     110.370     240.727
  H     -119.788     111.268     240.954
  H     -120.514     110.688     236.177
  H     -121.689     111.694     237.045
  H     -121.962     109.932     236.882
  H     -120.903     113.215     247.353
  H     -119.732     113.228     246.057
  H     -120.229     111.712     246.770

 3  4  5  6  7  8  9  10  11  12  22  25  29  30  31  32 0
 6-311+G(2d,p)
 ****
 33  36  37 0
 6-311+G(2d,p)
 ****
 1  2  13  14  15  16  17  18  19  20  21  23  24  26 0
 3-21G
 ****
 27  28  34  35  38  39  40  41  42  43  44  45  46  47  48 0
 3-21G
 ****


