%nproc=1
%NoSave
%Mem=1900MB
#P OB98/GEN NMR

erre ene a

0 1
  C      -26.977     -33.181     279.189
  O      -26.542     -32.101     279.992
  P      -26.230     -32.335     281.543
  C      -28.152     -30.909     282.481
  O      -27.615     -32.220     282.343
  C      -29.190     -30.873     283.600
  O      -30.308     -31.725     283.275
  C      -28.671     -31.377     284.942
  O      -27.859     -30.400     285.567
  C      -29.977     -31.679     285.666
  O      -30.538     -30.481     286.225
  C      -30.859     -32.204     284.524
  N      -33.269     -36.247     286.491
  C      -33.285     -34.938     286.823
  N      -32.582     -33.924     286.274
  C      -31.784     -34.381     285.299
  C      -31.632     -35.691     284.869
  C      -32.442     -36.653     285.496
  N      -32.480     -37.979     285.123
  N      -30.687     -35.765     283.864
  C      -30.271     -34.525     283.696
  N      -30.951     -33.648     284.494
  O      -25.109     -31.522     282.102
  O      -25.894     -33.899     281.633
  H      -31.409     -30.716     286.600
  H      -24.983     -34.014     281.964
  H      -33.958     -34.668     287.632
  H      -29.500     -34.214     283.003
  H      -31.883     -31.814     284.587
  H      -29.847     -32.391     286.490
  H      -28.113     -32.308     284.802
  H      -29.562     -29.846     283.689
  H      -28.620     -30.628     281.532
  H      -33.201     -38.548     285.538
  H      -32.113     -38.233     284.209
  H      -27.339     -30.206     282.696
  P      -26.630     -30.857     286.484
  C      -28.191     -30.700     288.513
  O      -27.253     -31.498     287.815
  O      -25.572     -29.827     286.706
  O      -26.042     -32.137     285.718
  H      -25.079     -32.185     285.860
  H      -27.664     -29.936     289.091
  H      -28.751     -31.339     289.199
  H      -28.888     -30.221     287.821
  H      -27.135     -32.840     278.187
  H      -27.893     -33.571     279.582
  H      -26.232     -33.949     279.191

 3  4  5  6  7  8  9  10  11  12  22  25  29  30  31  32 0
 6-311+G(2d,p)
 ****
 33  36  37 0
 6-311+G(2d,p)
 ****
 1  2  13  14  15  16  17  18  19  20  21  23  24  26 0
 3-21G
 ****
 27  28  34  35  38  39  40  41  42  43  44  45  46  47  48 0
 3-21G
 ****


