%nproc=1
%NoSave
%Mem=1900MB
#P OB98/GEN NMR

erre ene a

0 1
  C       67.484    -432.533      20.589
  O       67.991    -431.739      19.532
  H       66.605    -432.035      21.009
  H       68.239    -432.643      21.373
  H       67.189    -433.518      20.215
  P       69.283    -432.310      18.768
  C       70.642    -430.622      20.217
  O       70.423    -431.197      18.936
  C       72.065    -430.058      20.310
  O       73.009    -431.168      20.220
  C       72.425    -429.076      19.185
  O       73.402    -428.154      19.696
  C       73.080    -429.998      18.167
  O       73.777    -429.259      17.191
  C       73.890    -430.878      19.112
  N       77.808    -433.162      16.743
  C       77.682    -431.933      17.292
  N       76.611    -431.400      17.915
  C       75.602    -432.287      17.968
  C       75.584    -433.574      17.460
  C       76.758    -434.013      16.820
  N       76.884    -435.259      16.253
  N       74.360    -434.178      17.703
  C       73.657    -433.268      18.342
  N       74.359    -432.108      18.518
  O       68.871    -432.208      17.226
  O       69.693    -433.694      19.149
  H       74.305    -429.857      16.617
  H       68.515    -433.064      16.920
  H       78.558    -431.292      17.216
  H       72.636    -433.392      18.691
  H       74.767    -430.349      19.511
  H       72.323    -430.587      17.637
  H       71.562    -428.519      18.801
  H       72.206    -429.604      21.301
  H       70.499    -431.397      20.978
  H       69.918    -429.816      20.385
  H       77.752    -435.489      15.792
  H       76.103    -435.900      16.284
  P       72.902    -426.873      20.534
  C       72.852    -425.309      18.432
  O       73.346    -425.545      19.743
  O       73.924    -426.871      21.775
  O       71.489    -426.915      21.005
  H       73.490    -426.456      22.545
  H       73.248    -424.386      18.062
  H       71.784    -425.253      18.458
  H       73.152    -426.110      17.788

 6  7  8  9  10  11  12  13  14  15  25  28  32  33  34  35 0
 6-311+G(2d,p)
 ****
 36  37  40 0
 6-311+G(2d,p)
 ****
 1  2  3  4  5  16  17  18  19  20  21  22  23  24 0
 3-21G
 ****
 26  27  29  30  31  38  39 41  42  43  44  45  46  47  48 0
 3-21G
 ****


