%nproc=1
%NoSave
%Mem=1900MB
#P OB98/GEN NMR

erre ene a

0 1
  C     -172.451    -780.049     354.442
  O     -171.590    -780.652     355.395
  H     -173.422    -779.848     354.900
  H     -172.005    -779.104     354.111
  H     -172.573    -780.701     353.573
  P     -171.967    -782.136     355.878
  C     -169.450    -782.687     356.231
  O     -170.748    -782.616     356.809
  C     -168.419    -783.145     357.274
  O     -168.170    -782.056     358.192
  C     -168.892    -784.352     358.102
  O     -167.776    -785.222     358.339
  C     -169.344    -783.724     359.416
  O     -169.281    -784.653     360.498
  C     -168.383    -782.551     359.537
  N     -169.767    -781.386     364.316
  C     -169.163    -782.476     363.783
  N     -168.835    -782.711     362.502
  C     -169.118    -781.634     361.734
  C     -169.728    -780.456     362.137
  C     -170.066    -780.347     363.495
  N     -170.701    -779.257     364.031
  N     -169.891    -779.609     361.050
  C     -169.390    -780.268     360.018
  N     -168.919    -781.503     360.387
  O     -171.771    -782.989     354.536
  O     -173.330    -782.303     356.458
  H     -169.826    -784.303     361.232
  H     -172.556    -782.877     353.962
  H     -168.942    -783.280     364.490
  H     -169.353    -779.908     358.999
  H     -167.408    -782.849     359.958
  H     -170.382    -783.376     359.315
  H     -169.689    -784.916     357.618
  H     -167.474    -783.362     356.762
  H     -169.172    -781.691     355.859
  H     -170.961    -779.287     365.002
  H     -170.992    -778.498     363.422
  H     -169.464    -783.398     355.393
  P     -168.060    -786.801     358.274
  C     -165.631    -787.528     357.752
  O     -166.718    -787.593     358.660
  O     -168.242    -787.084     356.707
  O     -169.285    -787.210     359.046
  H     -169.056    -787.599     356.550
  H     -164.811    -788.098     358.136
  H     -165.330    -786.509     357.628
  H     -165.932    -787.928     356.806

 6  7  8  9  10  11  12  13  14  15  25  28  32  33  34  35 0
 6-311+G(2d,p)
 ****
 36  39  40 0
 6-311+G(2d,p)
 ****
 1  2  3  4  5  16  17  18  19  20  21  22  23  24 0
 3-21G
 ****
 26  27  29  30  31  37  38  41  42  43  44  45  46  47 0
 3-21G
 ****
 48 0
 3-21G
 ****


