%nproc=1
%NoSave
%Mem=1900MB
#P OB98/GEN NMR

erre ene a

0 1
  C      -87.794     -76.815      27.878
  O      -86.784     -76.788      28.864
  H      -88.244     -75.822      27.814
  H      -88.571     -77.534      28.147
  H      -87.369     -77.070      26.904
  P      -86.002     -78.145      29.204
  C      -83.810     -76.831      29.563
  O      -84.751     -77.740      30.124
  C      -84.266     -75.386      29.798
  O      -84.480     -75.217      31.221
  C      -83.221     -74.359      29.340
  O      -83.759     -73.376      28.458
  C      -82.603     -73.885      30.650
  O      -82.053     -72.586      30.599
  C      -83.744     -74.059      31.657
  N      -83.292     -74.226      33.037
  C      -83.075     -73.071      33.782
  O      -83.245     -71.925      33.375
  N      -82.643     -73.270      35.069
  C      -82.402     -74.474      35.660
  O      -82.019     -74.588      36.818
  C      -82.622     -75.656      34.812
  C      -83.049     -75.480      33.561
  O      -85.664     -79.004      28.033
  O      -86.970     -78.903      30.230
  H      -81.590     -72.434      31.450
  H      -87.412     -79.643      29.772
  H      -82.498     -72.442      35.624
  H      -82.427     -76.627      35.246
  H      -83.224     -76.331      32.909
  H      -84.414     -73.199      31.631
  H      -81.788     -74.569      30.914
  H      -82.443     -74.839      28.735
  H      -85.229     -75.235      29.299
  H      -83.740     -77.038      28.490
  H      -82.828     -76.989      30.022
  P      -83.211     -73.059      26.995
  C      -85.365     -72.068      25.858
  O      -84.062     -71.853      26.382
  O      -82.987     -74.240      26.113
  O      -81.774     -72.379      27.265
  H      -81.206     -72.628      26.508
  H      -85.762     -71.142      25.499
  H      -86.000     -72.454      26.628
  H      -85.314     -72.771      25.053

 6  7  8  9  10  11  12  13  14  15  16  26  31  32  33  34  35 0
 6-311+G(2d,p)
 ****
 36  37 0
 6-311+G(2d,p)
 ****
 1  2  3  4  5  17  18  19  20  21  22  23  24  25 0
 3-21G
 ****
 27  28  29  30  38  39  40  41  42  43  44  45 0
 3-21G
 ****


