%nproc=1
%NoSave
%Mem=1900MB
#P OB98/GEN NMR

erre ene a

0 1
  C       77.653     -98.009      65.237
  O       77.883     -98.958      64.216
  H       77.870     -98.472      66.203
  H       76.607     -97.691      65.227
  H       78.306     -97.142      65.106
  P       77.662     -98.460      62.706
  C       80.001     -97.352      62.948
  O       78.661     -97.224      62.490
  C       80.930     -97.605      61.764
  O       80.641     -96.652      60.715
  C       82.410     -97.429      62.080
  O       82.948     -98.559      62.743
  C       82.987     -97.210      60.688
  O       83.220     -98.453      60.013
  C       81.867     -96.434      59.982
  N       85.258     -92.987      58.374
  C       85.211     -94.331      58.256
  N       84.258     -95.179      58.698
  C       83.273     -94.501      59.311
  C       83.187     -93.135      59.513
  C       84.241     -92.358      59.009
  N       84.306     -90.993      59.160
  N       82.046     -92.822      60.225
  C       81.450     -93.977      60.440
  N       82.152     -95.017      59.902
  O       76.215     -97.774      62.766
  O       77.733     -99.528      61.667
  H       82.351     -98.764      59.693
  H       75.537     -98.418      62.492
  H       86.053     -94.787      57.741
  H       80.522     -94.111      60.983
  H       81.698     -96.789      58.959
  H       83.939     -96.680      60.731
  H       82.566     -96.520      62.674
  H       80.732     -98.611      61.374
  H       80.067     -98.196      63.643
  H       80.286     -96.434      63.473
  H       85.105     -90.502      58.793
  H       83.608     -90.528      59.725
  P       84.276     -98.372      63.618
  C       82.937     -97.994      65.815
  O       83.893     -97.485      64.898
  O       85.168     -97.388      62.726
  O       84.994     -99.640      63.939
  H       85.847     -97.891      62.240
  H       82.792     -97.290      66.607
  H       83.289     -98.919      66.220
  H       82.009     -98.157      65.309

 6  7  8  9  10  11  12  13  14  15  25  28  32  33  34  35 0
 6-311+G(2d,p)
 ****
 36  37  40 0
 6-311+G(2d,p)
 ****
 1  2  3  4  5  16  17  18  19  20  21  22  23  24 0
 3-21G
 ****
 26  27  29  30  31  38  39 41  42  43  44  45  46  47  48 0
 3-21G
 ****


