%nproc=1
%NoSave
%Mem=1900MB
#P OB98/GEN NMR

erre ene a

0 1
  C      -17.505      57.145      38.275
  O      -17.713      57.059      39.669
  H      -17.349      56.137      37.883
  H      -16.620      57.747      38.052
  H      -18.383      57.576      37.787
  P      -17.852      58.423      40.505
  C      -19.596      60.338      40.435
  O      -19.033      59.222      39.762
  C      -20.060      61.384      39.425
  O      -18.938      61.967      38.730
  C      -20.965      60.850      38.319
  O      -22.285      60.570      38.756
  C      -20.910      62.017      37.347
  O      -21.741      63.087      37.831
  C      -19.412      62.401      37.424
  N      -18.612      61.794      36.362
  C      -18.768      62.327      35.076
  O      -19.545      63.258      34.875
  N      -18.066      61.765      34.037
  C      -17.291      60.749      34.258
  N      -16.655      60.200      33.186
  C      -17.084      60.167      35.598
  C      -17.771      60.727      36.592
  O      -16.591      59.197      40.719
  O      -18.568      57.983      41.867
  H      -21.373      63.368      38.689
  H      -18.666      58.793      42.426
  H      -16.434      59.315      35.726
  H      -17.684      60.344      37.603
  H      -19.287      63.489      37.382
  H      -21.262      61.761      36.344
  H      -20.519      59.974      37.839
  H      -20.545      62.193      39.986
  H      -16.854      60.598      32.278
  H      -18.835      60.750      41.105
  H      -16.270      59.263      33.225
  H      -20.460      60.024      41.028
  P      -23.109      59.433      37.976
  C      -22.493      57.101      36.992
  O      -22.035      58.357      37.463
  O      -23.566      60.180      36.639
  O      -24.260      58.838      38.725
  H      -24.461      60.559      36.735
  H      -21.656      56.506      36.690
  H      -23.145      57.249      36.156
  H      -23.024      56.599      37.774

 6  7  8  9  10  11  12  13  14  15  16  26  30  31  32  33  35 0
 6-311+G(2d,p)
 ****
 37  38 0
 6-311+G(2d,p)
 ****
 1  2  3  4  5  17  18  19  20  21  22  23  24  25 0
 3-21G
 ****
 27  28  29  34  36  39  40  41  42  43  44  45  46 0
 3-21G
 ****


