%nproc=1
%NoSave
%Mem=1900MB
#P OB98/GEN NMR

erre ene a

0 1
  C       28.712    -635.448    -129.339
  O       29.677    -636.380    -128.891
  H       29.098    -634.438    -129.172
  H       27.789    -635.568    -128.772
  H       28.514    -635.572    -130.407
  P       29.489    -637.926    -129.263
  C       27.748    -638.543    -127.461
  O       27.992    -638.322    -128.844
  C       26.287    -638.233    -127.110
  O       25.434    -639.214    -127.781
  C       25.972    -638.306    -125.603
  O       24.941    -637.348    -125.333
  C       25.445    -639.726    -125.481
  O       24.793    -639.938    -124.256
  C       24.601    -639.798    -126.753
  N       24.195    -641.151    -127.109
  C       22.922    -641.562    -126.723
  O       22.120    -640.844    -126.130
  N       22.594    -642.854    -127.040
  C       23.395    -643.752    -127.679
  O       23.040    -644.893    -127.959
  C       24.740    -643.271    -128.037
  C       25.072    -642.011    -127.738
  O       30.552    -638.850    -128.760
  O       29.424    -637.927    -130.864
  H       30.298    -638.153    -131.227
  H       24.025    -639.335    -124.168
  H       21.669    -643.167    -126.770
  H       25.410    -643.968    -128.524
  H       26.056    -641.622    -127.985
  H       23.712    -639.170    -126.667
  H       26.276    -640.437    -125.524
  H       26.845    -638.093    -124.974
  H       26.026    -637.251    -127.523
  H       28.411    -637.887    -126.888
  H       27.977    -639.585    -127.216
  P       25.177    -636.023    -124.459
  C       25.036    -636.976    -122.064
  O       25.873    -636.416    -123.069
  O       23.947    -635.189    -124.284
  O       26.311    -635.193    -125.233
  H       26.126    -634.237    -125.144
  H       25.619    -637.192    -121.193
  H       24.594    -637.879    -122.430
  H       24.265    -636.278    -121.813

 6  7  8  9  10  11  12  13  14  15  16  27  31  32  33  34  35 0
 6-311+G(2d,p)
 ****
 36  37 0
 6-311+G(2d,p)
 ****
 1  2  3  4  5  17  18  19  20  21  22  23  24  25 0
 3-21G
 ****
 26  28  29  30  38  39  40  41  42  43  44  45 0
 3-21G
 ****


