%nproc=1
%NoSave
%Mem=1900MB
#P OB98/GEN NMR

erre ene a

0 1
  C     -100.324     -88.093     -15.255
  O     -101.590     -88.533     -14.797
  P     -101.685     -89.705     -13.711
  C     -101.681     -88.209     -11.582
  O     -100.998     -89.158     -12.371
  C     -101.491     -88.492     -10.086
  O     -101.962     -87.335      -9.352
  C     -102.287     -89.677      -9.552
  O     -101.718     -90.082      -8.305
  C     -103.645     -89.058      -9.313
  O     -104.435     -89.821      -8.405
  C     -103.282     -87.628      -8.836
  N     -104.254     -86.632      -9.322
  C     -105.186     -86.161      -8.402
  O     -105.174     -86.481      -7.215
  N     -106.184     -85.376      -8.911
  C     -106.352     -85.070     -10.229
  O     -107.396     -84.637     -10.702
  C     -105.215     -85.393     -11.105
  C     -104.242     -86.172     -10.625
  O     -100.642     -90.785     -14.262
  O     -103.045     -90.287     -13.533
  H     -103.925     -89.879      -7.564
  H     -101.106     -91.470     -14.778
  H     -106.937     -85.154      -8.271
  H     -105.241     -85.036     -12.125
  H     -103.416     -86.469     -11.264
  H     -103.254     -87.566      -7.742
  H     -104.190     -89.009     -10.264
  H     -102.341     -90.528     -10.238
  H     -100.423     -88.615      -9.872
  H     -102.743     -88.219     -11.844
  H     -101.317     -87.199     -11.802
  P     -101.431     -91.644      -8.084
  C      -99.688     -91.739      -9.966
  O     -100.933     -92.216      -9.496
  O     -102.520     -92.422      -7.423
  O     -100.086     -91.644      -7.210
  H      -99.981     -92.506      -6.769
  H      -99.228     -92.512     -10.588
  H      -99.013     -91.499      -9.141
  H      -99.851     -90.845     -10.573
  H     -100.457     -87.310     -15.972
  H      -99.806     -88.911     -15.711
  H      -99.753     -87.726     -14.428

 3  4  5  6  7  8  9  10  11  12  13  23  28  29  30  31  32 0
 6-311+G(2d,p)
 ****
 33  34 0
 6-311+G(2d,p)
 ****
 1  2  14  15  16  17  18  19  20  21  22  24  25  26  27 0
 3-21G
 ****
 35  36  37  38  39  40  41  42  43  44  45 0
 3-21G
 ****


