%nproc=1
%NoSave
%Mem=1900MB
#P OB98/GEN NMR

erre ene a

0 1
  C     1080.215     221.568    -405.007
  O     1079.597     222.854    -404.905
  P     1080.571     224.096    -404.571
  C     1078.668     225.790    -405.129
  O     1079.598     225.309    -404.158
  C     1077.581     226.642    -404.451
  O     1076.743     225.813    -403.639
  C     1078.109     227.705    -403.541
  O     1078.599     228.832    -404.255
  C     1076.890     228.036    -402.665
  O     1076.074     229.006    -403.313
  C     1076.190     226.660    -402.611
  N     1076.273     226.026    -401.285
  C     1075.186     226.301    -400.424
  O     1074.258     227.026    -400.776
  N     1075.248     225.755    -399.140
  C     1076.247     225.029    -398.778
  N     1076.247     224.516    -397.518
  C     1077.413     224.748    -399.676
  C     1077.381     225.304    -400.895
  O     1081.100     224.540    -406.027
  O     1081.685     223.807    -403.628
  H     1075.298     229.161    -402.743
  H     1081.979     224.971    -405.946
  H     1078.237     224.153    -399.315
  H     1078.151     225.141    -401.607
  H     1075.098     226.771    -402.841
  H     1077.189     228.418    -401.672
  H     1078.925     227.309    -402.873
  H     1076.966     227.081    -405.245
  H     1075.453     224.745    -396.930
  H     1078.194     224.952    -405.650
  H     1076.975     223.928    -397.161
  H     1079.224     226.371    -405.865
  P     1079.710     229.761    -403.561
  C     1078.816     231.697    -405.012
  O     1079.129     231.254    -403.693
  O     1080.886     229.771    -404.679
  O     1080.188     229.367    -402.239
  H     1081.658     230.245    -404.334
  H     1078.255     232.652    -404.962
  H     1078.168     230.955    -405.520
  H     1079.738     231.846    -405.582
  H     1079.471     220.832    -405.230
  H     1080.690     221.326    -404.079
  H     1080.946     221.585    -405.788

 3  4  5  6  7  8  9  10  11  12  13  21  23  27  28  29  30  32 0
 6-311+G(2d,p)
 ****
 34  35 0
 6-311+G(2d,p)
 ****
 1  2  14  15  16  17  18  19  20  22  24  25  26 0
 3-21G
 ****
 31  33  36  37  38  39  40  41  42  43  44  45  46 0
 3-21G
 ****


