%nproc=1
%NoSave
%Mem=1900MB
#P OB98/GEN NMR

erre ene a

0 1
  C     -442.039     921.001    -323.614
  O     -441.545     921.915    -324.569
  H     -442.474     920.144    -324.144
  H     -442.821     921.473    -323.013
  H     -441.233     920.641    -322.965
  P     -440.679     923.146    -324.004
  C     -439.204     923.538    -326.112
  O     -440.260     924.030    -325.278
  C     -439.427     924.007    -327.548
  O     -440.266     923.061    -328.258
  C     -440.099     925.372    -327.684
  O     -439.167     926.424    -327.533
  C     -440.621     925.287    -329.096
  O     -439.543     925.504    -330.029
  C     -441.103     923.834    -329.186
  N     -445.907     924.304    -330.738
  C     -444.725     924.632    -331.399
  N     -444.846     925.142    -332.628
  N     -443.541     924.442    -330.874
  C     -443.581     923.923    -329.629
  C     -444.685     923.584    -328.868
  C     -445.992     923.774    -329.472
  O     -447.070     923.504    -328.932
  N     -444.328     923.078    -327.656
  C     -443.003     923.134    -327.650
  N     -442.499     923.644    -328.821
  O     -439.307     922.463    -323.557
  O     -441.303     923.902    -322.873
  H     -439.216     926.409    -329.886
  H     -438.961     922.914    -322.757
  H     -446.795     924.477    -331.185
  H     -442.372     922.810    -326.830
  H     -440.980     923.400    -330.183
  H     -441.391     926.039    -329.310
  H     -445.723     925.351    -333.070
  H     -440.939     925.468    -326.983
  H     -443.991     925.334    -333.138
  H     -438.452     924.009    -328.054
  H     -439.220     922.446    -326.077
  H     -438.256     923.912    -325.740
  P     -439.753     927.919    -327.389
  C     -437.711     928.676    -325.955
  O     -438.469     928.858    -327.141
  O     -440.449     927.875    -325.940
  O     -440.685     928.339    -328.444
  H     -441.132     928.579    -325.876
  H     -436.898     929.372    -325.941
  H     -437.327     927.678    -325.927
  H     -438.337     928.841    -325.103

 6  7  8  9  10  11  12  13  14  15  26  29  33  34 0
 6-311+G(2d,p)
 ****
 36  38  39  40  41 0
 6-311+G(2d,p)
 ****
 1  2  3  4  5  16  17  18  19  20  21  22  23  24  25 0
 3-21G
 ****
 27  28  30  31  32  35  37  42  43  44  45  46  47 0
 3-21G
 ****
 48  49 0
 3-21G
 ****


