%nproc=1
%NoSave
%Mem=1900MB
#P OB98/GEN NMR

erre ene a

0 1
  C       -1.296    -158.455    -255.771
  O       -2.527    -158.904    -255.241
  H       -0.636    -159.304    -255.964
  H       -1.488    -157.933    -256.714
  H       -0.816    -157.760    -255.076
  P       -2.450    -159.713    -253.856
  C       -1.828    -161.944    -255.014
  O       -1.433    -160.937    -254.093
  C       -0.845    -163.111    -254.966
  O        0.414    -162.665    -255.536
  C       -0.567    -163.642    -253.550
  O       -0.717    -165.065    -253.505
  C        0.891    -163.300    -253.305
  O        1.566    -164.274    -252.514
  C        1.458    -163.213    -254.718
  N        6.541    -163.256    -254.291
  C        5.655    -164.244    -254.557
  N        4.324    -164.149    -254.753
  C        3.924    -162.869    -254.685
  C        4.712    -161.753    -254.447
  C        6.077    -161.986    -254.220
  N        6.968    -160.986    -253.893
  N        3.942    -160.603    -254.443
  C        2.707    -161.024    -254.632
  N        2.646    -162.387    -254.770
  O       -3.884    -160.425    -253.767
  O       -2.181    -158.868    -252.657
  H        2.514    -164.213    -252.730
  H       -4.345    -160.105    -252.968
  H        6.076    -165.248    -254.611
  H        1.823    -160.397    -254.632
  H        1.710    -164.205    -255.115
  H        0.951    -162.332    -252.790
  H       -1.215    -163.186    -252.795
  H       -1.223    -163.916    -255.610
  H       -1.840    -161.528    -256.029
  H        7.904    -161.254    -253.635
  H        6.605    -160.053    -253.731
  H       -2.839    -162.284    -254.760
  P       -2.103    -165.617    -252.903
  C       -1.056    -165.881    -250.539
  O       -2.109    -165.326    -251.321
  O       -1.940    -167.205    -253.009
  O       -3.311    -165.142    -253.642
  H       -2.678    -167.583    -253.524
  H       -1.190    -165.606    -249.514
  H       -0.117    -165.507    -250.889
  H       -1.070    -166.947    -250.627

 6  7  8  9  10  11  12  13  14  15  25  28  32  33  34  35 0
 6-311+G(2d,p)
 ****
 36  39  40 0
 6-311+G(2d,p)
 ****
 1  2  3  4  5  16  17  18  19  20  21  22  23  24 0
 3-21G
 ****
 26  27  29  30  31  37  38  41  42  43  44  45  46  47  48 0
 3-21G
 ****


