%nproc=1
%NoSave
%Mem=1900MB
#P OB98/GEN NMR

erre ene a

0 1
  C     -304.365    -121.314     -52.615
  O     -304.343    -122.255     -51.545
  P     -305.144    -123.632     -51.714
  C     -304.670    -126.110     -50.918
  O     -304.573    -124.724     -50.695
  C     -303.759    -126.855     -49.915
  O     -302.374    -126.755     -50.332
  C     -303.844    -126.286     -48.499
  O     -304.903    -126.864     -47.758
  C     -302.467    -126.624     -47.947
  O     -302.400    -128.009     -47.577
  C     -301.571    -126.352     -49.182
  N     -301.097    -124.970     -49.414
  C     -300.027    -124.475     -48.665
  O     -299.424    -125.115     -47.810
  N     -299.637    -123.189     -48.953
  C     -300.079    -122.422     -49.995
  O     -299.656    -121.301     -50.242
  C     -301.110    -123.046     -50.840
  C     -301.566    -124.259     -50.508
  O     -304.686    -124.165     -53.149
  O     -306.638    -123.492     -51.615
  H     -302.432    -128.533     -48.404
  H     -305.445    -124.190     -53.760
  H     -298.906    -122.793     -48.374
  H     -301.453    -122.491     -51.705
  H     -302.329    -124.730     -51.132
  H     -300.688    -126.993     -49.167
  H     -302.256    -126.053     -47.043
  H     -303.936    -125.193     -48.529
  H     -304.044    -127.913     -49.911
  H     -304.376    -126.364     -51.939
  H     -305.710    -126.434     -50.798
  P     -306.345    -126.160     -47.752
  C     -308.708    -126.982     -47.183
  O     -307.327    -127.194     -46.994
  O     -306.838    -125.651     -49.066
  O     -306.192    -124.982     -46.671
  H     -305.977    -124.128     -47.112
  H     -309.256    -127.838     -46.754
  H     -308.954    -126.907     -48.250
  H     -309.018    -126.070     -46.667
  H     -303.787    -120.455     -52.346
  H     -305.375    -121.018     -52.809
  H     -303.950    -121.763     -53.493

 3  4  5  6  7  8  9  10  11  12  13  23  28  29  30  31  32 0
 6-311+G(2d,p)
 ****
 33  34 0
 6-311+G(2d,p)
 ****
 1  2  14  15  16  17  18  19  20  21  22  24  25  26  27 0
 3-21G
 ****
 35  36  37  38  39  40  41  42  43  44  45 0
 3-21G
 ****


