%nproc=1
%NoSave
%Mem=1900MB
#P OB98/GEN NMR

erre ene a

0 1
  C      157.825    -108.266     138.883
  O      156.574    -107.730     139.322
  P      155.378    -108.776     139.539
  C      155.645    -111.050     140.765
  O      155.696    -109.633     140.857
  C      155.626    -111.666     142.164
  O      156.747    -111.221     142.958
  C      154.390    -111.294     142.972
  O      153.254    -112.015     142.526
  C      154.853    -111.649     144.382
  O      154.752    -113.066     144.603
  C      156.332    -111.233     144.346
  N      156.402    -108.557     148.705
  C      156.115    -109.851     148.445
  N      156.116    -110.487     147.255
  C      156.471    -109.649     146.268
  C      156.796    -108.307     146.382
  C      156.749    -107.754     147.672
  N      157.027    -106.433     147.935
  N      157.106    -107.775     145.147
  C      156.947    -108.773     144.300
  N      156.576    -109.928     144.932
  O      155.581    -109.822     138.347
  O      154.022    -108.151     139.501
  H      153.804    -113.302     144.549
  H      154.880    -109.706     137.679
  H      155.845    -110.456     149.307
  H      157.089    -108.707     143.229
  H      156.975    -111.948     144.872
  H      154.268    -111.153     145.162
  H      154.199    -110.217     142.900
  H      155.687    -112.757     142.056
  H      156.506    -111.425     140.208
  H      156.893    -106.098     148.876
  H      157.201    -105.806     147.163
  H      154.754    -111.334     140.196
  P      152.132    -111.211     141.711
  C      151.834    -110.739     139.204
  O      152.454    -111.561     140.175
  O      152.653    -109.707     141.843
  O      150.731    -111.460     142.153
  H      153.611    -109.639     141.674
  H      152.163    -111.062     138.213
  H      152.123    -109.695     139.351
  H      150.748    -110.840     139.266
  H      158.535    -107.473     138.777
  H      157.692    -108.755     137.941
  H      158.183    -108.971     139.603

 3  4  5  6  7  8  9  10  11  12  22  25  29  30  31  32 0
 6-311+G(2d,p)
 ****
 33  36  37 0
 6-311+G(2d,p)
 ****
 1  2  13  14  15  16  17  18  19  20  21  23  24  26 0
 3-21G
 ****
 27  28  34  35  38  39  40  41  42  43  44  45  46  47  48 0
 3-21G
 ****


