%nproc=1
%NoSave
%Mem=1900MB
#P OB98/GEN NMR

erre ene a

0 1
  C      -53.712    -101.811    -457.158
  O      -53.555    -102.407    -458.437
  P      -54.832    -102.903    -459.280
  C      -56.873    -104.313    -458.558
  O      -55.481    -104.072    -458.400
  C      -57.304    -105.489    -457.682
  O      -57.081    -105.164    -456.294
  C      -58.775    -105.854    -457.794
  O      -59.034    -106.567    -458.996
  C      -58.974    -106.645    -456.506
  O      -58.485    -107.987    -456.658
  C      -58.082    -105.869    -455.519
  N      -58.834    -104.950    -454.667
  C      -58.623    -105.065    -453.290
  O      -57.836    -105.887    -452.831
  N      -59.292    -104.202    -452.453
  C      -60.117    -103.327    -452.944
  N      -60.701    -102.457    -452.071
  C      -60.408    -103.211    -454.385
  C      -59.733    -104.042    -455.182
  O      -54.539    -103.278    -460.691
  O      -55.895    -101.723    -459.131
  H      -57.520    -107.923    -456.807
  H      -55.806    -101.018    -459.822
  H      -61.112    -102.473    -454.745
  H      -59.875    -104.008    -456.255
  H      -57.529    -106.569    -454.880
  H      -60.023    -106.706    -456.189
  H      -59.401    -104.948    -457.773
  H      -56.672    -106.352    -457.937
  H      -60.339    -102.457    -451.124
  H      -57.071    -104.554    -459.605
  H      -61.109    -101.586    -452.386
  H      -57.427    -103.405    -458.294
  P      -60.566    -106.753    -459.431
  C      -62.600    -107.772    -458.180
  O      -61.201    -107.791    -458.374
  O      -60.464    -107.583    -460.796
  O      -61.317    -105.473    -459.599
  H      -60.583    -106.989    -461.562
  H      -62.893    -108.672    -457.638
  H      -63.127    -107.761    -459.141
  H      -62.888    -106.895    -457.592
  H      -52.751    -101.552    -456.765
  H      -54.193    -102.503    -456.499
  H      -54.310    -100.928    -457.247

 3  4  5  6  7  8  9  10  11  12  13  23  27  28  29  30  32 0
 6-311+G(2d,p)
 ****
 34  35 0
 6-311+G(2d,p)
 ****
 1  2  14  15  16  17  18  19  20  21  22  24  25  26 0
 3-21G
 ****
 31  33  36  37  38  39  40  41  42  43  44  45  46 0
 3-21G
 ****


