%nproc=1
%NoSave
%Mem=1900MB
#P OB98/GEN NMR

erre ene a

0 1
  C     -560.477     -63.722      84.410
  O     -559.917     -64.958      84.797
  P     -560.288     -66.258      83.928
  C     -562.462     -66.510      85.354
  O     -561.874     -66.483      84.057
  C     -563.199     -67.842      85.548
  O     -563.954     -68.181      84.367
  C     -562.264     -69.022      85.789
  O     -561.796     -69.057      87.126
  C     -563.164     -70.202      85.430
  O     -564.005     -70.571      86.544
  C     -564.006     -69.615      84.274
  N     -563.574     -70.096      82.963
  C     -564.585     -70.496      82.092
  O     -565.785     -70.478      82.403
  N     -564.181     -70.958      80.877
  C     -562.891     -71.108      80.452
  O     -562.586     -71.576      79.373
  C     -561.856     -70.698      81.428
  C     -562.240     -70.226      82.624
  O     -559.665     -67.469      84.763
  O     -559.779     -66.224      82.524
  H     -563.406     -70.905      87.238
  H     -559.331     -68.159      84.143
  H     -564.904     -71.226      80.221
  H     -560.825     -70.798      81.133
  H     -561.495     -69.924      83.349
  H     -565.070     -69.884      84.404
  H     -562.589     -71.097      85.154
  H     -561.427     -68.988      85.078
  H     -563.899     -67.734      86.390
  H     -563.166     -65.683      85.453
  H     -561.674     -66.399      86.108
  P     -560.241     -69.392      87.351
  C     -560.594     -71.954      87.760
  O     -560.077     -70.928      86.925
  O     -560.162     -69.382      88.950
  O     -559.335     -68.418      86.667
  H     -560.991     -69.693      89.355
  H     -561.523     -71.644      88.256
  H     -559.840     -72.203      88.522
  H     -560.792     -72.836      87.155
  H     -560.143     -62.955      85.076
  H     -561.544     -63.787      84.448
  H     -560.169     -63.487      83.413

 3  4  5  6  7  8  9  10  11  12  13  23  28  29  30  31  32 0
 6-311+G(2d,p)
 ****
 33  34 0
 6-311+G(2d,p)
 ****
 1  2  14  15  16  17  18  19  20  21  22  24  25  26 0
 3-21G
 ****
 27  35  36  37  38  39  40  41  42  43  44  45 0
 3-21G
 ****


