%nproc=1
%NoSave
%Mem=1900MB
#P OB98/GEN NMR

erre ene a

0 1
  C       -6.405    -469.370     202.348
  O       -7.698    -468.809     202.216
  H       -5.750    -468.631     202.818
  H       -5.995    -469.626     201.365
  H       -6.437    -470.260     202.983
  P       -8.824    -469.657     201.447
  C       -9.580    -470.870     203.612
  O       -8.985    -470.998     202.327
  C      -10.950    -471.531     203.629
  O      -10.887    -472.884     203.119
  C      -11.581    -471.673     205.012
  O      -12.075    -470.453     205.542
  C      -12.694    -472.663     204.699
  O      -13.769    -471.986     204.033
  C      -11.967    -473.639     203.741
  N      -11.435    -474.823     204.423
  C      -12.296    -475.926     204.523
  O      -13.428    -475.880     204.045
  N      -11.850    -477.051     205.185
  C      -10.672    -477.063     205.721
  N      -10.304    -478.179     206.409
  C       -9.732    -475.925     205.634
  C      -10.172    -474.853     204.985
  O       -8.598    -469.882     199.985
  O      -10.193    -468.893     201.770
  H      -14.467    -472.650     203.866
  H      -10.922    -469.374     201.304
  H       -8.760    -475.986     206.106
  H       -9.546    -473.970     204.892
  H      -12.638    -473.967     202.935
  H      -13.116    -473.136     205.598
  H      -10.878    -472.144     205.717
  H      -11.607    -470.961     202.950
  H      -10.995    -478.924     206.490
  H       -9.649    -469.801     203.851
  H       -9.543    -478.167     207.079
  H       -8.952    -471.357     204.372
  P      -12.258    -470.331     207.132
  C      -10.000    -469.021     207.154
  O      -10.799    -470.036     207.741
  O      -12.556    -471.842     207.573
  O      -13.316    -469.377     207.598
  H      -13.509    -472.013     207.625
  H       -9.068    -468.955     207.675
  H      -10.511    -468.083     207.217
  H       -9.818    -469.259     206.127

 6  7  8  9  10  11  12  13  14  15  16  26  30  31  32  33  35 0
 6-311+G(2d,p)
 ****
 37  38 0
 6-311+G(2d,p)
 ****
 1  2  3  4  5  17  18  19  20  21  22  23  24  25 0
 3-21G
 ****
 27  28  29  34  36  39  40  41  42  43  44  45  46 0
 3-21G
 ****


