%nproc=1
%NoSave
%Mem=1900MB
#P OB98/GEN NMR

erre ene a

0 1
  C      -33.966      88.402     -39.002
  O      -33.842      88.567     -40.408
  P      -35.068      88.077     -41.324
  C      -36.378      89.109     -43.316
  O      -35.344      89.277     -42.353
  C      -36.228      90.122     -44.447
  O      -36.503      91.451     -43.963
  C      -34.835      90.187     -45.056
  O      -34.619      89.166     -46.014
  C      -34.881      91.547     -45.733
  O      -35.592      91.449     -46.980
  C      -35.688      92.378     -44.728
  N      -35.535      96.393     -41.567
  C      -36.501      95.932     -42.390
  N      -36.461      94.861     -43.210
  C      -35.257      94.266     -43.155
  C      -34.166      94.646     -42.393
  C      -34.337      95.760     -41.557
  N      -33.362      96.211     -40.698
  N      -33.107      93.791     -42.605
  C      -33.550      92.906     -43.470
  N      -34.849      93.144     -43.826
  O      -36.317      88.154     -40.325
  O      -34.908      86.722     -41.922
  H      -34.998      91.001     -47.611
  H      -37.026      87.556     -40.631
  H      -37.432      96.492     -42.382
  H      -32.976      92.076     -43.858
  H      -36.369      93.080     -45.220
  H      -33.887      91.942     -45.963
  H      -34.060      90.191     -44.279
  H      -36.973      89.881     -45.216
  H      -37.346      89.257     -42.830
  H      -33.623      96.894     -40.004
  H      -32.552      95.622     -40.547
  H      -36.335      88.088     -43.710
  P      -33.256      88.328     -45.885
  C      -32.658      85.815     -46.170
  O      -33.643      86.825     -46.282
  O      -33.018      88.264     -44.304
  O      -32.099      88.929     -46.610
  H      -32.070      88.149     -44.105
  H      -33.154      84.840     -46.172
  H      -32.091      85.916     -45.240
  H      -31.977      85.867     -47.024
  H      -33.083      88.768     -38.521
  H      -34.092      87.364     -38.774
  H      -34.816      88.949     -38.652

 3  4  5  6  7  8  9  10  11  12  22  25  29  30  31  32 0
 6-311+G(2d,p)
 ****
 33  36  37 0
 6-311+G(2d,p)
 ****
 1  2  13  14  15  16  17  18  19  20  21  23  24  26 0
 3-21G
 ****
 27  28  34  35  38  39  40  41  42  43  44  45  46  47  48 0
 3-21G
 ****


