%nproc=1
%NoSave
%Mem=1900MB
#P OB98/GEN NMR

erre ene a

0 1
  C      777.370    -267.425    -588.148
  O      778.400    -266.577    -588.631
  P      779.649    -267.204    -589.400
  C      779.461    -265.242    -591.098
  O      780.299    -266.030    -590.285
  C      780.129    -263.882    -591.428
  O      779.997    -263.028    -590.262
  C      781.622    -263.969    -591.699
  O      782.025    -262.779    -592.385
  C      782.212    -263.966    -590.307
  O      783.582    -263.582    -590.287
  C      781.239    -263.022    -589.536
  N      781.032    -263.475    -588.147
  C      781.720    -262.773    -587.155
  O      782.400    -261.775    -587.380
  N      781.650    -263.304    -585.888
  C      781.013    -264.473    -585.561
  O      781.223    -265.095    -584.522
  C      780.124    -265.035    -586.587
  C      780.196    -264.522    -587.826
  O      778.964    -268.161    -590.494
  O      780.612    -267.954    -588.547
  H      783.915    -263.755    -589.370
  H      778.929    -269.079    -590.163
  H      782.263    -262.883    -585.203
  H      779.484    -265.858    -586.321
  H      779.587    -264.953    -588.626
  H      781.630    -261.988    -589.512
  H      782.140    -264.988    -589.891
  H      781.932    -264.844    -592.271
  H      779.602    -263.414    -592.259
  H      778.505    -265.085    -590.582
  H      779.238    -265.758    -592.028
  P      782.925    -262.929    -593.706
  C      781.282    -261.744    -595.275
  O      782.543    -261.690    -594.655
  O      782.915    -264.259    -594.364
  O      784.393    -262.527    -593.180
  H      785.057    -262.852    -593.800
  H      780.909    -260.716    -595.439
  H      780.545    -262.265    -594.657
  H      781.365    -262.243    -596.238
  H      776.621    -266.835    -587.663
  H      777.781    -268.124    -587.450
  H      776.931    -267.956    -588.967

 3  4  5  6  7  8  9  10  11  12  13  23  28  29  30  31  32 0
 6-311+G(2d,p)
 ****
 33  34 0
 6-311+G(2d,p)
 ****
 1  2  14  15  16  17  18  19  20  21  22  24  25  26  27 0
 3-21G
 ****
 35  36  37  38  39  40  41  42  43  44  45 0
 3-21G
 ****


