%nproc=1
%NoSave
%Mem=1900MB
#P OB98/GEN NMR

erre ene a

0 1
  C       80.364     382.028      30.978
  O       79.377     382.407      31.915
  H       80.340     382.731      30.140
  H       80.167     381.020      30.600
  H       81.355     382.062      31.443
  P       79.172     381.429      33.175
  C       77.963     383.310      34.520
  O       77.873     382.030      33.909
  C       76.572     383.927      34.647
  O       76.120     384.422      33.364
  C       75.489     382.954      35.107
  O       75.520     382.701      36.501
  C       74.250     383.736      34.705
  O       74.042     384.819      35.627
  C       74.673     384.258      33.316
  N       74.293     383.356      32.225
  C       72.925     383.099      32.067
  O       72.099     383.612      32.820
  N       72.526     382.230      31.079
  C       73.406     381.688      30.296
  N       72.947     380.834      29.338
  C       74.852     381.938      30.416
  C       75.222     382.773      31.386
  O       80.359     381.849      34.164
  O       79.103     379.972      32.870
  H       74.840     385.378      35.587
  H       80.238     381.407      35.040
  H       75.552     381.453      29.749
  H       76.271     383.009      31.535
  H       74.238     385.248      33.115
  H       73.341     383.137      34.709
  H       75.517     382.018      34.538
  H       76.647     384.789      35.322
  H       71.955     380.638      29.320
  H       78.603     383.947      33.896
  H       73.562     380.250      28.783
  H       78.410     383.222      35.516
  P       75.631     381.168      36.970
  C       77.416     381.840      38.743
  O       76.183     381.175      38.474
  O       76.864     380.613      36.120
  O       74.389     380.357      36.752
  H       76.730     379.675      35.883
  H       77.647     381.756      39.784
  H       77.329     382.873      38.479
  H       78.197     381.389      38.167

 6  7  8  9  10  11  12  13  14  15  16  26  30  31  32  33  35 0
 6-311+G(2d,p)
 ****
 37  38 0
 6-311+G(2d,p)
 ****
 1  2  3  4  5  17  18  19  20  21  22  23  24  25 0
 3-21G
 ****
 27  28  29  34  36  39  40  41  42  43  44  45  46 0
 3-21G
 ****


