%nproc=1
%NoSave
%Mem=1900MB
#P OB98/GEN NMR

erre ene a

0 1
  C     1883.708       4.209     102.045
  O     1884.118       5.471     102.588
  P     1884.935       5.443     103.963
  C     1887.230       5.600     102.729
  O     1886.378       4.852     103.601
  C     1888.358       6.258     103.513
  O     1889.166       5.267     104.139
  C     1889.293       7.079     102.662
  O     1888.713       8.331     102.334
  C     1890.507       7.190     103.577
  O     1890.401       8.303     104.465
  C     1890.485       5.840     104.334
  N     1891.531       4.942     103.931
  C     1892.803       5.217     104.443
  O     1892.971       6.180     105.169
  N     1893.850       4.394     104.069
  C     1893.646       3.406     103.251
  N     1894.712       2.640     102.936
  C     1892.318       3.104     102.680
  C     1891.320       3.890     103.043
  O     1884.235       4.280     104.785
  O     1884.932       6.754     104.708
  H     1889.577       8.171     104.974
  H     1884.324       4.426     105.750
  H     1892.198       2.254     102.021
  H     1890.312       3.748     102.672
  H     1890.587       6.026     105.409
  H     1891.435       7.343     102.995
  H     1889.566       6.534     101.749
  H     1887.904       6.883     104.305
  H     1895.610       2.879     103.340
  H     1886.616       6.369     102.231
  H     1894.644       1.822     102.332
  H     1887.621       4.929     101.968
  P     1889.249       9.090     101.033
  C     1886.894       9.536     100.085
  O     1888.115       8.834      99.914
  O     1890.430       8.125     100.536
  O     1889.708      10.496     101.200
  H     1890.892       8.542      99.791
  H     1886.284       9.396      99.193
  H     1887.077      10.601     100.238
  H     1886.350       9.132     100.948
  H     1883.175       4.370     101.131
  H     1883.072       3.709     102.745
  H     1884.571       3.606     101.853

 3  4  5  6  7  8  9  10  11  12  13  21  23  27  28  29  30  32 0
 6-311+G(2d,p)
 ****
 34  35 0
 6-311+G(2d,p)
 ****
 1  2  14  15  16  17  18  19  20  22  24  25  26 0
 3-21G
 ****
 31  33  36  37  38  39  40  41  42  43  44  45  46 0
 3-21G
 ****


