%nproc=1
%NoSave
%Mem=1900MB
#P OB98/GEN NMR

erre ene a

0 1
  C      248.327    -739.990     628.235
  O      249.493    -739.823     629.046
  P      250.848    -739.189     628.461
  C      252.275    -741.308     628.212
  O      251.618    -740.257     627.523
  C      253.535    -741.828     627.476
  O      254.299    -742.736     628.323
  C      253.244    -742.579     626.164
  O      254.365    -742.326     625.308
  C      253.239    -744.034     626.633
  O      253.412    -744.960     625.569
  C      254.380    -744.005     627.642
  N      255.182    -749.014     628.339
  C      255.531    -748.177     627.335
  N      255.315    -746.854     627.237
  C      254.702    -746.390     628.339
  C      254.297    -747.116     629.438
  C      254.550    -748.506     629.422
  N      254.160    -749.352     630.425
  N      253.684    -746.296     630.371
  C      253.704    -745.095     629.826
  N      254.315    -745.100     628.598
  O      251.726    -738.543     629.496
  O      250.347    -738.077     627.412
  H      254.338    -744.928     625.292
  H      250.849    -737.260     627.542
  H      256.042    -748.652     626.494
  H      253.273    -744.188     630.264
  H      255.356    -744.052     627.151
  H      252.275    -744.250     627.110
  H      252.307    -742.275     625.692
  H      254.180    -740.967     627.297
  H      251.572    -742.149     628.363
  H      254.303    -750.349     630.264
  H      253.570    -749.004     631.172
  H      252.569    -740.942     629.217
  P      254.295    -741.215     624.163
  C      254.373    -742.844     622.187
  O      253.596    -741.907     622.893
  O      255.606    -740.559     623.860
  O      253.204    -740.153     624.665
  H      253.317    -739.310     624.191
  H      255.112    -742.319     621.551
  H      253.727    -743.438     621.537
  H      254.902    -743.518     622.868
  H      247.545    -740.427     628.820
  H      248.556    -740.631     627.409
  H      248.008    -739.037     627.869

 3  4  5  6  7  8  9  10  11  12  22  25  29  30  31  32 0
 6-311+G(2d,p)
 ****
 33  36  37 0
 6-311+G(2d,p)
 ****
 1  2  13  14  15  16  17  18  19  20  21  23  24  26 0
 3-21G
 ****
 27  28  34  35  38  39  40  41  42  43  44  45  46  47  48 0
 3-21G
 ****


