%nproc=1
%NoSave
%Mem=1900MB
#P OB98/GEN NMR

erre ene a

0 1
  C      332.482    -211.655    -693.916
  O      332.953    -211.781    -692.583
  H      331.391    -211.570    -693.895
  H      332.758    -212.541    -694.493
  H      332.903    -210.757    -694.377
  P      334.537    -211.898    -692.397
  C      335.301    -209.406    -692.536
  O      335.177    -210.663    -693.195
  C      336.728    -208.859    -692.687
  O      337.000    -208.654    -694.104
  C      336.950    -207.513    -691.987
  O      338.344    -207.435    -691.600
  C      336.681    -206.528    -693.106
  O      337.143    -205.234    -692.773
  C      337.370    -207.257    -694.255
  N      337.743    -203.416    -697.601
  C      338.311    -203.607    -696.398
  N      338.180    -204.670    -695.573
  C      337.368    -205.592    -696.112
  C      336.732    -205.548    -697.338
  C      336.945    -204.381    -698.104
  N      336.353    -204.177    -699.345
  N      335.975    -206.685    -697.553
  C      336.166    -207.417    -696.464
  N      336.999    -206.789    -695.571
  O      334.921    -213.170    -693.293
  O      335.011    -212.049    -690.988
  H      338.056    -205.276    -692.442
  H      334.955    -213.973    -692.743
  H      338.962    -202.813    -696.045
  H      335.720    -208.388    -696.284
  H      338.460    -207.191    -694.179
  H      335.600    -206.433    -693.299
  H      336.323    -207.368    -691.090
  H      337.441    -209.621    -692.333
  H      335.065    -209.551    -691.470
  H      334.579    -208.699    -692.970
  H      336.559    -203.300    -699.816
  H      335.744    -204.883    -699.712
  P      338.799    -208.043    -690.180
  C      339.518    -210.382    -691.111
  O      338.676    -209.650    -690.235
  O      337.561    -207.654    -689.245
  O      340.075    -207.499    -689.625
  H      337.869    -207.552    -688.319
  H      339.305    -211.427    -691.021
  H      340.541    -210.203    -690.854
  H      339.343    -210.068    -692.119

 6  7  8  9  10  11  12  13  14  15  25  28  32  33  34  35 0
 6-311+G(2d,p)
 ****
 36  37  40 0
 6-311+G(2d,p)
 ****
 1  2  3  4  5  16  17  18  19  20  21  22  23  24 0
 3-21G
 ****
 26  27  29  30  31  38  39 41  42  43  44  45  46  47  48 0
 3-21G
 ****


