%nproc=1
%NoSave
%Mem=1900MB
#P OB98/GEN NMR

erre ene a

0 1
  C      -21.368    -207.164    -243.080
  O      -20.353    -206.642    -242.223
  P      -19.476    -205.395    -242.724
  C      -19.050    -204.135    -240.526
  O      -18.485    -204.952    -241.541
  C      -19.850    -204.949    -239.498
  O      -19.047    -206.031    -238.957
  C      -20.367    -204.128    -238.308
  O      -21.645    -204.666    -237.951
  C      -19.337    -204.427    -237.236
  O      -19.807    -204.125    -235.932
  C      -19.067    -205.907    -237.522
  N      -17.827    -206.374    -236.923
  C      -17.786    -206.473    -235.532
  O      -18.737    -206.074    -234.858
  N      -16.658    -206.992    -234.943
  C      -15.614    -207.241    -235.671
  N      -14.524    -207.773    -235.054
  C      -15.562    -206.978    -237.121
  C      -16.699    -206.574    -237.678
  O      -20.246    -204.282    -243.352
  O      -18.476    -206.070    -243.783
  H      -19.195    -204.519    -235.274
  H      -18.304    -205.431    -244.504
  H      -14.643    -207.125    -237.671
  H      -16.764    -206.360    -238.736
  H      -19.890    -206.532    -237.151
  H      -18.435    -203.831    -237.416
  H      -20.478    -203.061    -238.530
  H      -20.700    -205.406    -240.021
  H      -14.567    -207.926    -234.054
  H      -19.710    -203.395    -240.988
  H      -13.690    -208.044    -235.559
  H      -18.250    -203.566    -240.039
  P      -22.781    -203.676    -237.400
  C      -24.710    -205.138    -238.344
  O      -24.127    -204.522    -237.217
  O      -23.113    -202.804    -238.711
  O      -22.381    -202.777    -236.276
  H      -23.476    -201.943    -238.430
  H      -25.433    -205.885    -238.002
  H      -23.957    -205.643    -238.955
  H      -25.234    -204.390    -238.946
  H      -21.854    -207.986    -242.598
  H      -20.925    -207.498    -243.995
  H      -22.086    -206.399    -243.290

 3  4  5  6  7  8  9  10  11  12  13  23  27  28  29  30  32 0
 6-311+G(2d,p)
 ****
 34  35 0
 6-311+G(2d,p)
 ****
 1  2  14  15  16  17  18  19  20  21  22  24  25  26 0
 3-21G
 ****
 31  33  36  37  38  39  40  41  42  43  44  45  46 0
 3-21G
 ****


