%nproc=1
%NoSave
%Mem=1900MB
#P OB98/GEN NMR

erre ene a

0 1
  C     -140.247    -271.865    -312.219
  O     -140.777    -271.810    -313.550
  P     -140.096    -272.799    -314.626
  C     -142.011    -274.551    -314.812
  O     -140.684    -274.282    -314.376
  C     -142.211    -276.038    -315.139
  O     -141.638    -276.324    -316.432
  C     -141.559    -277.001    -314.135
  O     -142.413    -278.143    -313.976
  C     -140.308    -277.468    -314.854
  O     -139.835    -278.717    -314.363
  C     -140.817    -277.497    -316.295
  N     -137.286    -280.276    -318.621
  C     -138.288    -280.666    -317.757
  N     -138.335    -281.983    -317.449
  N     -139.155    -279.845    -317.236
  C     -139.007    -278.569    -317.662
  C     -138.066    -278.054    -318.523
  C     -137.080    -278.969    -319.056
  O     -136.145    -278.677    -319.791
  N     -138.235    -276.701    -318.709
  C     -139.273    -276.393    -317.955
  N     -139.771    -277.492    -317.289
  O     -138.584    -272.896    -314.124
  O     -140.180    -272.311    -316.027
  H     -139.061    -278.966    -314.902
  H     -137.979    -272.630    -314.837
  H     -136.625    -280.944    -318.977
  H     -139.687    -275.405    -317.836
  H     -141.452    -278.377    -316.475
  H     -139.514    -276.726    -314.721
  H     -137.733    -282.676    -317.858
  H     -141.340    -276.561    -313.155
  H     -139.090    -282.292    -316.844
  H     -143.284    -276.230    -315.201
  H     -142.225    -273.964    -315.708
  H     -142.704    -274.240    -314.026
  P     -142.833    -278.523    -312.472
  C     -145.224    -279.171    -313.271
  O     -144.430    -278.377    -312.413
  O     -142.307    -277.278    -311.616
  O     -142.276    -279.818    -311.989
  H     -142.115    -277.549    -310.702
  H     -144.647    -279.959    -313.761
  H     -145.671    -278.534    -314.043
  H     -146.024    -279.635    -312.684
  H     -140.772    -271.171    -311.597
  H     -139.208    -271.611    -312.238
  H     -140.365    -272.854    -311.829

 3  4  5  6  7  8  9  10  11  12  23  26  30  31  33  0
 6-311+G(2d,p)
 ****
 35  36  37  38 0
 6-311+G(2d,p)
 ****
 1  2  13  14  15  16  17  18  19  20  21  22  24  25  27  28  29 0
 3-21G
 ****
 32  34  39  40  41  42  43  44  45  46  47  48  49 0
 3-21G
 ****


