%nproc=1
%NoSave
%Mem=1900MB
#P OB98/GEN NMR

erre ene a

0 1
  C       15.733     254.493     119.650
  O       15.441     254.798     121.003
  P       14.917     253.600     121.938
  C       12.400     253.772     121.324
  O       13.399     253.953     122.318
  C       11.006     254.095     121.869
  O       10.620     253.067     122.813
  C       10.912     255.449     122.576
  O        9.633     256.010     122.274
  C       10.954     255.082     124.047
  O       10.341     256.083     124.857
  C       10.236     253.723     124.038
  N       10.572     252.915     125.207
  C       10.253     253.450     126.458
  O        9.788     254.587     126.543
  N       10.516     252.709     127.583
  C       11.144     251.579     127.474
  N       11.381     250.881     128.617
  C       11.608     251.038     126.181
  C       11.273     251.738     125.099
  O       15.709     253.844     123.306
  O       15.150     252.232     121.383
  H        9.398     256.158     124.588
  H       15.894     252.998     123.755
  H       12.160     250.109     126.147
  H       11.551     251.406     124.107
  H        9.146     253.863     124.013
  H       11.995     254.965     124.372
  H       11.701     256.142     122.272
  H       10.295     254.052     121.034
  H       11.066     251.280     129.490
  H       12.404     252.724     121.001
  H       11.864     249.992     128.627
  H       12.632     254.397     120.458
  P        9.481     256.820     120.897
  C        9.601     259.090     122.090
  O        8.811     258.216     121.308
  O        8.242     256.058     120.217
  O       10.652     256.873     119.974
  H        8.083     256.419     119.326
  H        9.083     260.047     122.179
  H       10.572     259.256     121.614
  H        9.740     258.670     123.092
  H       16.069     255.377     119.150
  H       14.851     254.124     119.169
  H       16.499     253.747     119.610

 3  4  5  6  7  8  9  10  11  12  13  21  23  27  28  29  30  32 0
 6-311+G(2d,p)
 ****
 34  35 0
 6-311+G(2d,p)
 ****
 1  2  14  15  16  17  18  19  20  22  24  25  26 0
 3-21G
 ****
 31  33  36  37  38  39  40  41  42  43  44  45  46 0
 3-21G
 ****


