%nproc=1
%NoSave
%Mem=1900MB
#P OB98/GEN NMR

erre ene a

0 1
  C       15.142     -48.184     119.065
  O       13.832     -48.690     119.238
  H       15.079     -47.224     118.545
  H       15.749     -48.868     118.466
  H       15.612     -48.025     120.038
  P       13.668     -50.211     119.723
  C       13.918     -52.514     118.590
  O       14.130     -51.110     118.472
  C       14.288     -53.241     117.297
  O       15.652     -52.953     116.922
  C       14.223     -54.756     117.394
  O       12.928     -55.282     117.572
  C       15.041     -55.184     116.185
  O       14.277     -55.169     114.979
  C       16.121     -54.075     116.141
  N       17.420     -54.550     116.606
  C       18.500     -54.285     115.772
  O       18.397     -53.709     114.688
  N       19.715     -54.738     116.207
  C       19.940     -55.454     117.347
  O       21.054     -55.850     117.672
  C       18.754     -55.737     118.170
  C       17.565     -55.277     117.770
  O       12.318     -50.576     120.267
  O       14.859     -50.411     120.771
  H       14.902     -55.329     114.246
  H       14.720     -51.221     121.320
  H       20.514     -54.543     115.623
  H       18.893     -56.313     119.074
  H       16.675     -55.472     118.362
  H       16.245     -53.707     115.113
  H       15.449     -56.190     116.299
  H       14.794     -55.068     118.279
  H       13.639     -52.865     116.499
  H       12.856     -52.675     118.802
  H       14.509     -52.904     119.425
  P       12.520     -56.779     117.210
  C       12.583     -58.285     115.074
  O       12.649     -56.976     115.625
  O       11.308     -57.327     117.890
  O       13.800     -57.604     117.754
  H       13.468     -58.464     118.081
  H       12.686     -58.230     114.010
  H       11.640     -58.728     115.318
  H       13.373     -58.883     115.479

 6  7  8  9  10  11  12  13  14  15  16  26  31  32  33  34  35 0
 6-311+G(2d,p)
 ****
 36  37 0
 6-311+G(2d,p)
 ****
 1  2  3  4  5  17  18  19  20  21  22  23  24  25 0
 3-21G
 ****
 27  28  29  30  38  39  40  41  42  43  44  45 0
 3-21G
 ****


