%nproc=1
%NoSave
%Mem=1900MB
#P OB98/GEN NMR

erre ene a

0 1
  C      -93.847     199.750     267.941
  O      -95.008     199.287     268.593
  H      -93.050     199.850     268.684
  H      -94.022     200.729     267.489
  H      -93.527     199.036     267.178
  P      -96.390     199.230     267.776
  C      -97.146     201.619     268.330
  O      -96.658     200.752     267.313
  C      -97.946     202.781     267.740
  O      -98.631     203.492     268.803
  C      -97.089     203.801     266.980
  O      -97.712     204.111     265.732
  C      -97.091     205.021     267.889
  O      -96.838     206.225     267.174
  C      -98.472     204.898     268.542
  N      -98.600     205.693     269.758
  C      -98.926     207.041     269.593
  O      -99.055     207.513     268.461
  N      -99.060     207.833     270.704
  C      -98.835     207.336     271.879
  N      -98.974     208.176     272.940
  C      -98.443     205.930     272.099
  C      -98.351     205.170     271.007
  O      -97.522     198.589     268.507
  O      -96.016     198.498     266.405
  H      -97.537     206.335     266.492
  H      -96.839     198.141     265.988
  H      -98.255     205.564     273.097
  H      -98.077     204.123     271.073
  H      -99.261     205.207     267.844
  H      -96.309     204.909     268.653
  H      -96.077     203.452     266.785
  H      -98.731     202.365     267.097
  H      -99.247     209.132     272.747
  H      -96.296     201.996     268.908
  H      -98.819     207.900     273.899
  H      -97.799     201.037     268.991
  P      -97.080     203.406     264.433
  C      -96.562     205.546     263.070
  O      -96.035     204.433     263.774
  O      -98.302     203.385     263.401
  O      -96.550     202.035     264.695
  H      -98.712     202.501     263.384
  H      -95.758     206.140     262.688
  H      -97.158     206.138     263.733
  H      -97.167     205.200     262.258

 6  7  8  9  10  11  12  13  14  15  16  26  30  31  32  33  35 0
 6-311+G(2d,p)
 ****
 37  38 0
 6-311+G(2d,p)
 ****
 1  2  3  4  5  17  18  19  20  21  22  23  24  25 0
 3-21G
 ****
 27  28  29  34  36  39  40  41  42  43  44  45  46 0
 3-21G
 ****


