%nproc=1
%NoSave
%Mem=1900MB
#P OB98/GEN NMR

erre ene a

0 1
  C     -306.287     731.423     484.459
  O     -305.683     731.955     483.286
  P     -305.615     733.547     483.111
  C     -303.070     733.925     483.744
  O     -304.110     733.993     482.793
  C     -302.009     734.983     483.405
  O     -301.010     735.047     484.456
  C     -301.266     734.698     482.103
  O     -301.954     735.224     480.975
  C     -299.922     735.362     482.353
  O     -300.027     736.781     482.185
  C     -299.692     735.009     483.840
  N     -299.060     733.702     484.158
  C     -297.689     733.530     483.950
  O     -296.947     734.396     483.499
  N     -297.184     732.305     484.288
  C     -297.845     731.309     484.956
  O     -297.322     730.255     485.284
  C     -299.247     731.604     485.288
  C     -299.778     732.762     484.873
  O     -305.870     734.098     484.588
  O     -306.588     734.107     482.126
  H     -299.222     737.178     482.551
  H     -306.705     734.603     484.621
  H     -296.210     732.130     484.067
  H     -299.794     730.862     485.855
  H     -300.818     732.983     485.111
  H     -299.081     735.784     484.330
  H     -299.181     735.019     481.641
  H     -301.095     733.625     481.983
  H     -302.502     735.961     483.348
  H     -302.619     732.931     483.760
  H     -303.469     734.101     484.747
  P     -302.259     734.282     479.720
  C     -304.087     732.513     480.064
  O     -303.807     733.881     479.839
  O     -301.307     733.145     479.504
  O     -302.260     735.310     478.483
  H     -301.382     735.321     478.035
  H     -305.144     732.393     480.290
  H     -303.498     732.142     480.915
  H     -303.840     731.935     479.170
  H     -306.253     730.354     484.424
  H     -307.306     731.746     484.514
  H     -305.756     731.769     485.322

 3  4  5  6  7  8  9  10  11  12  13  23  28  29  30  31  32 0
 6-311+G(2d,p)
 ****
 33  34 0
 6-311+G(2d,p)
 ****
 1  2  14  15  16  17  18  19  20  21  22  24  25  26  27 0
 3-21G
 ****
 35  36  37  38  39  40  41  42  43  44  45 0
 3-21G
 ****


