%nproc=1
%NoSave
%Mem=1900MB
#P OB98/GEN NMR

erre ene a

0 1
  C       92.513     234.908    -234.663
  O       91.298     234.713    -235.387
  P       90.173     235.855    -235.328
  C       90.792     237.445    -237.260
  O       89.932     236.398    -236.818
  C       90.091     238.799    -237.162
  O       91.001     239.890    -237.402
  C       88.974     238.974    -238.178
  O       87.832     238.220    -237.813
  C       88.788     240.483    -238.163
  O       87.957     240.890    -237.063
  C       90.233     240.987    -237.947
  N       90.845     241.518    -239.155
  C       91.097     242.895    -239.159
  O       90.771     243.590    -238.198
  N       91.700     243.448    -240.264
  C       92.012     242.697    -241.273
  N       92.610     243.297    -242.337
  C       91.752     241.244    -241.312
  C       91.165     240.729    -240.233
  O       90.376     236.910    -234.291
  O       88.833     235.016    -235.045
  H       88.387     240.539    -236.256
  H       88.212     235.576    -234.537
  H       92.039     240.659    -242.174
  H       90.935     239.670    -240.179
  H       90.250     241.781    -237.187
  H       88.311     240.844    -239.079
  H       89.324     238.655    -239.170
  H       89.685     238.902    -236.144
  H       92.767     244.298    -242.290
  H       91.095     237.256    -238.293
  H       92.937     242.792    -243.148
  H       91.704     237.427    -236.656
  P       87.451     236.955    -238.722
  C       89.514     235.383    -238.738
  O       88.257     235.691    -238.165
  O       88.187     237.280    -240.111
  O       85.985     236.747    -238.925
  H       87.656     236.933    -240.851
  H       90.054     234.720    -238.059
  H       90.110     236.285    -238.901
  H       89.365     234.867    -239.690
  H       93.153     234.062    -234.805
  H       92.294     235.019    -233.622
  H       93.003     235.790    -235.020

 3  4  5  6  7  8  9  10  11  12  13  23  27  28  29  30  32 0
 6-311+G(2d,p)
 ****
 34  35 0
 6-311+G(2d,p)
 ****
 1  2  14  15  16  17  18  19  20  21  22  24  25  26 0
 3-21G
 ****
 31  33  36  37  38  39  40  41  42  43  44  45  46 0
 3-21G
 ****


