%nproc=1
%NoSave
%Mem=1900MB
#P OB98/GEN NMR

erre ene a

0 1
  C     -232.824     318.279     152.269
  O     -233.369     318.389     153.567
  H     -232.746     317.219     152.014
  H     -231.825     318.723     152.236
  H     -233.470     318.769     151.534
  P     -233.718     319.846     154.141
  C     -231.769     319.722     155.821
  O     -232.360     320.443     154.749
  C     -231.210     320.694     156.859
  O     -230.758     319.976     158.030
  C     -230.010     321.494     156.369
  O     -230.415     322.528     155.490
  C     -229.431     321.967     157.695
  O     -230.162     323.091     158.209
  C     -229.655     320.724     158.590
  N     -228.452     319.887     158.706
  C     -227.353     320.477     159.325
  O     -227.361     321.628     159.752
  N     -226.222     319.703     159.393
  C     -226.070     318.466     158.836
  O     -224.982     317.903     158.726
  C     -227.281     317.865     158.262
  C     -228.394     318.599     158.210
  O     -234.904     319.921     155.044
  O     -233.931     320.728     152.818
  H     -234.890     320.836     152.657
  H     -230.150     323.774     157.514
  H     -225.408     320.137     159.796
  H     -227.217     316.861     157.866
  H     -229.298     318.186     157.763
  H     -229.955     321.026     159.599
  H     -228.388     322.276     157.609
  H     -229.285     320.830     155.885
  H     -232.025     321.363     157.169
  H     -230.951     319.110     155.420
  H     -232.520     319.063     156.270
  P     -229.477     322.996     154.280
  C     -228.563     325.022     155.556
  O     -228.241     323.807     154.899
  O     -230.188     323.703     153.171
  O     -228.800     321.646     153.755
  H     -228.945     321.566     152.794
  H     -227.667     325.475     155.927
  H     -229.226     324.822     156.372
  H     -229.039     325.686     154.865

 6  7  8  9  10  11  12  13  14  15  16  27  31  32  33  34  35 0
 6-311+G(2d,p)
 ****
 36  37 0
 6-311+G(2d,p)
 ****
 1  2  3  4  5  17  18  19  20  21  22  23  24  25 0
 3-21G
 ****
 26  28  29  30  38  39  40  41  42  43  44  45 0
 3-21G
 ****


