%nproc=1
%NoSave
%Mem=1900MB
#P OB98/GEN NMR

erre ene a

0 1
  C     -104.826     191.268      33.084
  O     -106.007     191.532      32.322
  P     -106.964     192.701      32.873
  C     -108.746     192.967      34.738
  O     -107.837     192.100      34.077
  C     -110.125     192.314      34.860
  O     -110.909     192.462      33.662
  C     -110.060     190.817      35.136
  O     -109.798     190.587      36.510
  C     -111.452     190.366      34.710
  O     -112.414     190.559      35.766
  C     -111.764     191.295      33.527
  N     -113.663     188.097      30.081
  C     -114.069     188.340      31.381
  N     -115.140     187.651      31.818
  N     -113.467     189.185      32.179
  C     -112.408     189.805      31.610
  C     -111.932     189.669      30.325
  C     -112.599     188.727      29.452
  O     -112.300     188.497      28.287
  N     -110.875     190.513      30.091
  C     -110.634     191.058      31.269
  N     -111.576     190.712      32.210
  O     -108.021     192.904      31.688
  O     -106.233     193.968      33.181
  H     -113.270     190.190      35.488
  H     -107.863     193.761      31.248
  H     -114.156     187.431      29.511
  H     -109.812     191.725      31.487
  H     -112.801     191.649      33.556
  H     -111.477     189.299      34.465
  H     -115.652     186.987      31.256
  H     -109.300     190.349      34.501
  H     -115.455     187.817      32.766
  H     -110.657     192.820      35.677
  H     -108.830     193.909      34.190
  H     -108.341     193.214      35.725
  P     -108.749     189.435      36.889
  C     -108.586     186.878      36.474
  O     -109.391     188.038      36.446
  O     -108.810     189.396      38.488
  O     -107.356     189.682      36.406
  H     -107.904     189.338      38.848
  H     -109.225     186.011      36.669
  H     -107.822     186.937      37.253
  H     -108.104     186.750      35.502
  H     -104.274     190.476      32.623
  H     -105.100     190.980      34.078
  H     -104.221     192.150      33.122

 3  4  5  6  7  8  9  10  11  12  23  26  30  31 0
 6-311+G(2d,p)
 ****
 33  35  36  37  38 0
 6-311+G(2d,p)
 ****
 1  2  13  14  15  16  17  18  19  20  21  22  24  25 0
 3-21G
 ****
 27  28  29  32  34  39  40  41  42  43  44  45  46  47  48  49 0
 3-21G
 ****


