%nproc=1
%NoSave
%Mem=1900MB
#P OB98/GEN NMR

erre ene a

0 1
  C      312.169     143.766    -204.789
  O      311.278     144.640    -204.092
  P      311.498     144.778    -202.506
  C      309.372     143.447    -201.838
  O      310.788     143.528    -201.781
  C      308.728     143.706    -200.469
  O      308.823     142.529    -199.621
  C      309.363     144.871    -199.709
  O      308.330     145.505    -198.951
  C      310.310     144.169    -198.741
  O      310.637     145.016    -197.640
  C      309.486     142.923    -198.397
  N      310.296     141.834    -197.853
  C      310.820     142.008    -196.565
  O      310.646     143.075    -195.972
  N      311.560     141.000    -196.003
  C      311.800     139.923    -196.691
  N      312.538     138.956    -196.075
  C      311.321     139.715    -198.071
  C      310.581     140.701    -198.578
  O      310.572     146.023    -202.109
  O      312.919     145.010    -202.114
  H      310.790     145.923    -197.987
  H      311.077     146.654    -201.568
  H      311.567     138.810    -198.611
  H      310.184     140.641    -199.586
  H      308.709     143.162    -197.662
  H      311.242     143.892    -199.259
  H      309.858     145.601    -200.357
  H      307.663     143.909    -200.627
  H      312.840     139.132    -195.125
  H      309.071     142.458    -202.194
  H      312.792     138.080    -196.516
  H      309.005     144.160    -202.588
  P      307.566     146.757    -199.601
  C      308.540     148.654    -198.167
  O      308.576     147.994    -199.420
  O      306.458     147.081    -198.484
  O      306.945     146.591    -200.951
  H      305.873     147.796    -198.801
  H      309.351     149.383    -198.133
  H      308.678     147.930    -197.348
  H      307.586     149.180    -198.043
  H      311.921     143.760    -205.830
  H      312.077     142.775    -204.395
  H      313.175     144.108    -204.663

 3  4  5  6  7  8  9  10  11  12  13  21  23  27  28  29  30  32 0
 6-311+G(2d,p)
 ****
 34  35 0
 6-311+G(2d,p)
 ****
 1  2  14  15  16  17  18  19  20  22  24  25  26 0
 3-21G
 ****
 31  33  36  37  38  39  40  41  42  43  44  45  46 0
 3-21G
 ****


