%nproc=1
%NoSave
%Mem=1900MB
#P OB98/GEN NMR

erre ene a

0 1
  C     1084.382    -380.464    1131.294
  O     1085.313    -381.470    1131.633
  H     1083.436    -380.948    1131.006
  H     1084.745    -379.871    1130.438
  H     1084.193    -379.800    1132.145
  P     1086.828    -381.034    1131.948
  C     1086.660    -382.363    1134.160
  O     1087.396    -382.135    1132.959
  C     1087.163    -383.628    1134.855
  O     1088.607    -383.643    1134.852
  C     1086.741    -383.723    1136.311
  O     1085.381    -384.108    1136.424
  C     1087.746    -384.732    1136.842
  O     1087.385    -386.075    1136.504
  C     1089.037    -384.310    1136.079
  N     1089.909    -383.450    1136.866
  C     1091.010    -384.066    1137.453
  O     1091.215    -385.277    1137.298
  N     1091.859    -383.308    1138.232
  C     1091.623    -382.041    1138.410
  N     1092.497    -381.346    1139.184
  C     1090.459    -381.343    1137.792
  C     1089.662    -382.096    1137.044
  O     1087.049    -379.621    1132.392
  O     1087.596    -381.367    1130.575
  H     1088.151    -386.631    1136.721
  H     1087.574    -380.598    1129.972
  H     1090.320    -380.279    1137.952
  H     1088.789    -381.661    1136.559
  H     1089.612    -385.199    1135.766
  H     1087.839    -384.671    1137.918
  H     1086.921    -382.760    1136.820
  H     1086.822    -384.509    1134.287
  H     1093.256    -381.873    1139.586
  H     1085.610    -382.499    1133.874
  H     1092.453    -380.353    1139.319
  H     1086.737    -381.507    1134.832
  P     1084.376    -383.289    1137.369
  C     1082.744    -385.074    1136.447
  O     1083.106    -384.259    1137.569
  O     1084.051    -381.891    1136.886
  O     1085.096    -383.323    1138.794
  H     1085.873    -382.720    1138.831
  H     1081.892    -385.670    1136.699
  H     1083.563    -385.713    1136.191
  H     1082.506    -384.447    1135.613

 6  7  8  9  10  11  12  13  14  15  16  26  30  31  32  33  35 0
 6-311+G(2d,p)
 ****
 37  38 0
 6-311+G(2d,p)
 ****
 1  2  3  4  5  17  18  19  20  21  22  23  24  25 0
 3-21G
 ****
 27  28  29  34  36  39  40  41  42  43  44  45  46 0
 3-21G
 ****


