%nproc=1
%NoSave
%Mem=1900MB
#P OB98/GEN NMR

erre ene a

0 1
  C      200.714      43.228     391.947
  O      201.518      42.108     392.346
  P      202.103      41.963     393.834
  C      200.278      40.442     394.842
  O      200.876      41.739     394.846
  C      200.137      39.878     396.258
  O      199.194      40.658     397.027
  C      199.632      38.440     396.321
  O      200.683      37.533     396.033
  C      199.094      38.370     397.746
  O      200.164      38.150     398.676
  C      198.501      39.774     397.929
  N      193.949      40.771     400.036
  C      195.206      40.847     400.525
  N      196.371      40.558     399.904
  C      196.145      40.179     398.632
  C      194.920      40.058     397.994
  C      193.779      40.372     398.753
  N      192.498      40.282     398.257
  N      195.082      39.619     396.697
  C      196.388      39.503     396.547
  N      197.072      39.829     397.686
  O      203.036      43.060     394.238
  O      202.853      40.549     393.840
  H      199.791      38.220     399.574
  H      203.576      40.561     394.497
  H      195.289      41.183     401.553
  H      196.883      39.184     395.640
  H      198.679      40.158     398.940
  H      198.368      37.559     397.885
  H      198.807      38.301     395.612
  H      201.110      39.965     396.755
  H      200.912      39.775     394.243
  H      191.730      40.493     398.875
  H      192.358      39.936     397.319
  H      199.295      40.515     394.368
  P      200.350      36.078     395.443
  C      201.167      36.616     393.073
  O      200.062      36.258     393.879
  O      199.327      35.299     396.197
  O      201.770      35.334     395.451
  H      201.631      34.377     395.567
  H      201.350      37.691     393.157
  H      200.935      36.380     392.029
  H      202.066      36.068     393.370
  H      200.435      43.119     390.920
  H      201.274      44.131     392.071
  H      199.833      43.269     392.553

 3  4  5  6  7  8  9  10  11  12  22  25  29  30  31  32 0
 6-311+G(2d,p)
 ****
 33  36  37 0
 6-311+G(2d,p)
 ****
 1  2  13  14  15  16  17  18  19  20  21  23  24  26 0
 3-21G
 ****
 27  28  34  35  38  39  40  41  42  43  44  45  46  47  48 0
 3-21G
 ****


