%nproc=1
%NoSave
%Mem=1900MB
#P OB98/GEN NMR

erre ene a

0 1
  C     -203.518     -34.520    -120.575
  O     -204.326     -35.105    -119.575
  P     -204.688     -34.324    -118.223
  C     -203.586     -33.874    -115.954
  O     -203.380     -34.299    -117.297
  C     -202.274     -33.429    -115.301
  O     -201.683     -32.359    -116.100
  C     -202.425     -32.913    -113.862
  O     -201.285     -33.359    -113.131
  C     -202.394     -31.401    -114.039
  O     -202.029     -30.732    -112.840
  C     -201.404     -31.269    -115.199
  N     -201.514     -29.985    -115.877
  C     -200.679     -28.960    -115.425
  O     -199.988     -29.124    -114.419
  N     -200.654     -27.776    -116.127
  C     -201.527     -27.566    -117.064
  N     -201.423     -26.410    -117.775
  C     -202.591     -28.544    -117.401
  C     -202.503     -29.729    -116.805
  O     -205.931     -34.786    -117.536
  O     -204.830     -32.791    -118.692
  H     -205.692     -32.447    -118.387
  H     -201.091     -30.925    -112.645
  H     -203.371     -28.272    -118.093
  H     -203.221     -30.515    -117.002
  H     -200.373     -31.387    -114.842
  H     -203.392     -31.043    -114.340
  H     -203.338     -33.278    -113.379
  H     -201.571     -34.277    -115.329
  H     -200.658     -25.791    -117.547
  H     -203.988     -34.718    -115.391
  H     -201.838     -26.313    -118.701
  H     -204.322     -33.066    -115.924
  P     -201.434     -33.584    -111.545
  C     -201.918     -32.068    -109.494
  O     -201.499     -32.148    -110.843
  O     -199.953     -34.090    -111.152
  O     -202.444     -34.604    -111.109
  H     -200.006     -34.623    -110.330
  H     -201.965     -31.016    -109.208
  H     -201.194     -32.577    -108.835
  H     -202.909     -32.512    -109.367
  H     -203.402     -35.207    -121.387
  H     -202.557     -34.286    -120.166
  H     -203.983     -33.624    -120.930

 3  4  5  6  7  8  9  10  11  12  13  24  27  28  29  30  32 0
 6-311+G(2d,p)
 ****
 34  35 0
 6-311+G(2d,p)
 ****
 1  2  14  15  16  17  18  19  20  21  22  23  25  26 0
 3-21G
 ****
 31  33  36  37  38  39  40  41  42  43  44  45  46 0
 3-21G
 ****


