%nproc=1
%NoSave
%Mem=1900MB
#P OB98/GEN NMR

erre ene a

0 1
  C       -2.615     -82.771     105.983
  O       -1.752     -83.736     105.423
  H       -3.101     -83.202     106.862
  H       -3.386     -82.495     105.259
  H       -2.055     -81.882     106.289
  P       -0.810     -83.270     104.210
  C        1.445     -83.262     105.497
  O        0.648     -83.881     104.499
  C        2.745     -82.735     104.888
  O        3.444     -81.948     105.886
  C        3.692     -83.840     104.412
  O        4.323     -83.411     103.201
  C        4.728     -83.925     105.518
  O        5.977     -84.448     105.063
  C        4.779     -82.473     106.009
  N        5.272     -82.388     107.380
  C        6.655     -82.277     107.546
  O        7.398     -82.263     106.562
  N        7.171     -82.243     108.815
  C        6.383     -82.395     109.833
  N        6.958     -82.383     111.066
  C        4.925     -82.584     109.705
  C        4.441     -82.563     108.463
  O       -0.609     -81.706     104.476
  O       -1.340     -83.552     102.845
  H        5.830     -85.367     104.751
  H       -0.507     -81.215     103.639
  H        4.312     -82.733     110.582
  H        3.384     -82.701     108.270
  H        5.433     -81.871     105.363
  H        4.360     -84.583     106.315
  H        3.190     -84.795     104.242
  H        2.493     -82.056     104.065
  H        7.964     -82.268     111.112
  H        1.688     -84.000     106.267
  H        6.449     -82.537     111.923
  H        0.881     -82.443     105.957
  P        3.893     -84.172     101.857
  C        1.583     -83.033     101.519
  O        2.907     -83.213     101.034
  O        2.936     -85.341     102.384
  O        5.048     -84.712     101.079
  H        3.385     -86.202     102.302
  H        1.051     -82.371     100.868
  H        1.617     -82.614     102.503
  H        1.084     -83.979     101.552

 6  7  8  9  10  11  12  13  14  15  16  26  30  31  32  33  35 0
 6-311+G(2d,p)
 ****
 37  38 0
 6-311+G(2d,p)
 ****
 1  2  3  4  5  17  18  19  20  21  22  23  24  25 0
 3-21G
 ****
 27  28  29  34  36  39  40  41  42  43  44  45  46 0
 3-21G
 ****


