%nproc=1
%NoSave
%Mem=1900MB
#P OB98/GEN NMR

erre ene a

0 1
  C      -12.281     -39.508      77.738
  O      -11.702     -39.422      79.040
  P      -12.577     -38.809      80.235
  C      -14.155     -40.804      80.649
  O      -13.082     -40.019      81.160
  C      -14.776     -41.657      81.754
  O      -15.969     -42.328      81.303
  C      -13.857     -42.760      82.251
  O      -12.827     -42.233      83.069
  C      -14.842     -43.677      82.957
  O      -15.124     -43.207      84.285
  C      -16.101     -43.545      82.072
  N      -16.324     -44.697      81.212
  C      -16.840     -45.838      81.837
  O      -17.042     -45.843      83.050
  N      -17.098     -46.948      81.069
  C      -16.853     -46.922      79.795
  N      -17.131     -48.047      79.085
  C      -16.298     -45.744      79.102
  C      -16.053     -44.680      79.865
  O      -13.633     -37.834      79.828
  O      -11.468     -38.106      81.160
  H      -14.355     -43.465      84.832
  H      -11.875     -37.340      81.612
  H      -16.118     -45.770      78.037
  H      -15.640     -43.773      79.436
  H      -16.994     -43.418      82.698
  H      -14.454     -44.696      83.051
  H      -13.412     -43.285      81.393
  H      -15.045     -40.993      82.589
  H      -17.499     -48.846      79.587
  H      -13.786     -41.445      79.845
  H      -17.023     -48.110      78.083
  H      -14.899     -40.134      80.202
  P      -11.363     -42.869      82.928
  C      -10.828     -42.041      80.530
  O      -10.529     -41.958      81.910
  O      -11.634     -44.209      82.088
  O      -10.684     -43.174      84.224
  H      -11.013     -44.904      82.372
  H      -10.415     -41.160      80.030
  H      -11.906     -42.070      80.356
  H      -10.364     -42.936      80.108
  H      -11.572     -39.936      77.060
  H      -12.549     -38.528      77.402
  H      -13.155     -40.124      77.776

 3  4  5  6  7  8  9  10  11  12  13  23  27  28  29  30  32 0
 6-311+G(2d,p)
 ****
 34  35 0
 6-311+G(2d,p)
 ****
 1  2  14  15  16  17  18  19  20  21  22  24  25  26 0
 3-21G
 ****
 31  33  36  37  38  39  40  41  42  43  44  45  46 0
 3-21G
 ****


