%nproc=1
%NoSave
%Mem=1900MB
#P OB98/GEN NMR

erre ene a

0 1
  C      -44.972     -24.701     165.263
  O      -44.802     -23.955     164.072
  H      -44.015     -24.743     165.791
  H      -45.288     -25.724     165.041
  H      -45.710     -24.219     165.909
  P      -46.029     -23.882     163.043
  C      -44.417     -24.296     161.062
  O      -45.390     -23.435     161.644
  C      -44.620     -24.369     159.551
  O      -45.982     -24.728     159.248
  C      -44.373     -23.042     158.848
  O      -42.989     -22.777     158.740
  C      -45.101     -23.273     157.539
  O      -44.307     -24.050     156.632
  C      -46.340     -24.068     158.010
  N      -47.517     -23.225     158.187
  C      -47.862     -22.417     157.098
  O      -47.195     -22.444     156.065
  N      -48.945     -21.582     157.223
  C      -49.631     -21.568     158.321
  N      -50.691     -20.718     158.379
  C      -49.309     -22.413     159.487
  C      -48.248     -23.206     159.353
  O      -47.218     -23.074     163.466
  O      -46.404     -25.419     162.796
  H      -43.408     -23.668     156.671
  H      -47.067     -25.717     163.446
  H      -49.912     -22.372     160.381
  H      -47.943     -23.862     160.162
  H      -46.587     -24.857     157.291
  H      -45.343     -22.333     157.045
  H      -44.881     -22.232     159.382
  H      -43.967     -25.155     159.152
  H      -50.870     -20.148     157.558
  H      -44.550     -25.286     161.510
  H      -51.346     -20.685     159.144
  H      -43.405     -23.945     161.291
  P      -42.317     -21.590     159.583
  C      -41.330     -20.832     157.324
  O      -41.070     -21.095     158.700
  O      -42.007     -21.914     161.005
  O      -43.366     -20.391     159.419
  H      -44.173     -20.540     159.969
  H      -40.428     -20.512     156.846
  H      -42.070     -20.064     157.241
  H      -41.687     -21.723     156.852

 6  7  8  9  10  11  12  13  14  15  16  26  30  31  32  33  35 0
 6-311+G(2d,p)
 ****
 37  38 0
 6-311+G(2d,p)
 ****
 1  2  3  4  5  17  18  19  20  21  22  23  24  25 0
 3-21G
 ****
 27  28  29  34  36  39  40  41  42  43  44  45  46 0
 3-21G
 ****


