%nproc=1
%NoSave
%Mem=1900MB
#P OB98/GEN NMR

erre ene a

0 1
  C       51.946    -223.130     106.188
  O       50.532    -222.939     106.346
  P       49.868    -221.636     105.684
  C       47.479    -220.630     105.473
  O       48.287    -221.713     105.915
  C       45.994    -220.979     105.607
  O       45.567    -221.912     104.586
  C       45.643    -221.636     106.943
  O       45.455    -220.665     107.971
  C       44.314    -222.295     106.606
  O       43.255    -221.316     106.644
  C       44.545    -222.771     105.166
  N       43.002    -227.591     105.209
  C       42.272    -226.418     105.294
  N       40.933    -226.552     105.397
  N       42.807    -225.227     105.283
  C       44.161    -225.246     105.150
  C       44.989    -226.337     105.061
  C       44.388    -227.655     105.094
  O       44.984    -228.726     105.038
  N       46.303    -225.959     104.953
  C       46.261    -224.640     104.951
  N       44.984    -224.155     105.092
  O       50.011    -221.924     104.113
  O       50.521    -220.350     106.073
  H       42.430    -221.790     106.427
  H       50.056    -221.081     103.625
  H       42.539    -228.481     105.232
  H       47.128    -223.991     104.862
  H       43.652    -222.676     104.540
  H       44.048    -223.082     107.317
  H       40.450    -227.439     105.366
  H       46.384    -222.391     107.219
  H       40.376    -225.705     105.423
  H       45.412    -220.055     105.502
  H       47.707    -220.390     104.429
  H       47.735    -219.736     106.046
  P       46.286    -220.841     109.329
  C       47.036    -218.978     110.971
  O       45.987    -219.537     110.201
  O       47.803    -220.652     108.844
  O       46.086    -222.151     110.017
  H       48.399    -221.188     109.394
  H       46.700    -218.009     111.364
  H       47.924    -218.817     110.362
  H       47.273    -219.635     111.815
  H       52.241    -224.034     106.679
  H       52.468    -222.302     106.620
  H       52.183    -223.196     105.147

 3  4  5  6  7  8  9  10  11  12  23  26  30  31 0
 6-311+G(2d,p)
 ****
 33  35  36  37  38 0
 6-311+G(2d,p)
 ****
 1  2  13  14  15  16  17  18  19  20  21  22  24  25 0
 3-21G
 ****
 27  28  29  32  34  39  40  41  42  43  44  45  46  47  48  49 0
 3-21G
 ****


