%nproc=1
%NoSave
%Mem=1900MB
#P OB98/GEN NMR

erre ene a

0 1
  C       11.000     -47.752      20.846
  O       10.551     -47.104      19.672
  H       11.012     -48.830      20.667
  H       10.323     -47.540      21.678
  H       12.013     -47.424      21.091
  P       10.425     -45.506      19.737
  C       10.569     -45.858      17.176
  O       10.044     -45.075      18.240
  C        9.786     -45.608      15.891
  O        9.552     -44.200      15.715
  C       10.487     -46.086      14.625
  O       10.259     -47.471      14.424
  C        9.780     -45.248      13.570
  O        8.514     -45.853      13.240
  C        9.549     -43.912      14.294
  N       11.072     -40.268      11.015
  C       10.147     -41.244      10.902
  N        9.833     -42.212      11.790
  C       10.581     -42.101      12.901
  C       11.564     -41.157      13.157
  C       11.800     -40.202      12.154
  N       12.746     -39.207      12.272
  N       12.125     -41.356      14.401
  C       11.449     -42.365      14.910
  N       10.529     -42.875      14.029
  O       11.578     -44.791      20.355
  O        9.031     -45.341      20.508
  H        8.010     -45.923      14.073
  H        8.386     -45.997      20.191
  H        9.586     -41.254       9.973
  H       11.572     -42.752      15.916
  H        8.570     -43.483      14.049
  H       10.349     -45.176      12.641
  H       11.553     -45.833      14.630
  H        8.804     -46.090      15.996
  H       10.526     -46.923      17.434
  H       12.980     -38.693      11.438
  H       13.371     -39.242      13.064
  H       11.619     -45.577      17.044
  P       11.466     -48.464      14.061
  C        9.733     -50.350      14.290
  O       10.757     -49.782      13.483
  O       12.441     -48.682      15.165
  O       12.133     -47.816      12.762
  H       13.023     -48.192      12.622
  H        9.337     -51.218      13.805
  H        8.952     -49.633      14.432
  H       10.140     -50.627      15.240

 6  7  8  9  10  11  12  13  14  15  25  28  32  33  34  35 0
 6-311+G(2d,p)
 ****
 36  39  40 0
 6-311+G(2d,p)
 ****
 1  2  3  4  5  16  17  18  19  20  21  22  23  24 0
 3-21G
 ****
 26  27  29  30  31  37  38  41  42  43  44  45  46  47 0
 3-21G
 ****
 48 0
 3-21G
 ****


