%nproc=1
%NoSave
%Mem=1900MB
#P OB98/GEN NMR

erre ene a

0 1
  C      -71.849    -214.180    -177.167
  O      -71.756    -215.455    -177.766
  H      -72.850    -213.779    -177.343
  H      -71.118    -213.510    -177.627
  H      -71.676    -214.238    -176.089
  P      -70.539    -216.394    -177.311
  C      -72.252    -218.137    -178.186
  O      -70.923    -217.891    -177.752
  C      -72.395    -219.578    -178.674
  O      -71.345    -219.844    -179.654
  C      -72.275    -220.634    -177.563
  O      -73.179    -221.710    -177.847
  C      -70.858    -221.147    -177.739
  O      -70.683    -222.452    -177.201
  C      -70.718    -221.076    -179.255
  N      -67.550    -223.442    -182.346
  C      -68.928    -223.456    -182.292
  N      -69.570    -224.274    -183.154
  N      -69.625    -222.732    -181.456
  C      -68.861    -221.943    -180.662
  C      -67.493    -221.841    -180.614
  C      -66.731    -222.661    -181.533
  O      -65.508    -222.709    -181.613
  N      -67.100    -220.974    -179.624
  C      -68.229    -220.572    -179.065
  N      -69.323    -221.135    -179.659
  O      -70.695    -216.420    -175.717
  O      -69.184    -215.933    -177.730
  H      -69.770    -222.744    -177.395
  H      -70.122    -215.739    -175.318
  H      -67.060    -224.032    -182.996
  H      -68.304    -219.899    -178.223
  H      -71.231    -221.903    -179.764
  H      -70.150    -220.470    -177.245
  H      -69.104    -224.838    -183.847
  H      -72.467    -220.245    -176.558
  H      -70.583    -224.264    -183.153
  H      -73.353    -219.677    -179.200
  H      -72.493    -217.456    -179.010
  H      -72.943    -217.944    -177.359
  P      -74.707    -221.549    -177.393
  C      -75.844    -222.487    -179.538
  O      -75.586    -222.656    -178.151
  O      -75.152    -220.182    -178.098
  O      -74.896    -221.488    -175.913
  H      -75.787    -219.709    -177.529
  H      -76.439    -223.303    -179.892
  H      -74.918    -222.462    -180.073
  H      -76.370    -221.568    -179.694

 6  7  8  9  10  11  12  13  14  15  26  29  33  34 0
 6-311+G(2d,p)
 ****
 36  38  39  40  41 0
 6-311+G(2d,p)
 ****
 1  2  3  4  5  16  17  18  19  20  21  22  23  24  25 0
 3-21G
 ****
 27  28  30  31  32  35  37  42  43  44  45  46  47 0
 3-21G
 ****
 48  49 0
 3-21G
 ****


