%nproc=1
%NoSave
%Mem=1900MB
#P OB98/GEN NMR

erre ene a

0 1
  C     -112.328     139.350       5.873
  O     -112.380     140.113       7.062
  H     -113.343     139.229       5.487
  H     -111.912     138.361       6.083
  H     -111.718     139.855       5.117
  P     -110.988     140.613       7.679
  C     -110.289     142.526       9.298
  O     -111.348     141.744       8.762
  C     -110.800     143.921       9.657
  O     -111.005     144.673       8.426
  C     -112.134     143.920      10.419
  O     -112.111     144.992      11.369
  C     -113.149     144.236       9.338
  O     -114.359     144.798       9.826
  C     -112.344     145.202       8.460
  N     -112.895     145.330       7.112
  C     -114.178     145.851       6.993
  O     -114.848     146.292       7.926
  N     -114.697     145.858       5.721
  C     -114.083     145.385       4.599
  O     -114.609     145.399       3.492
  C     -112.734     144.837       4.791
  C     -112.209     144.833       6.019
  O     -110.340     141.444       6.475
  O     -110.085     139.538       8.183
  H     -109.796     140.861       5.912
  H     -114.932     144.973       9.051
  H     -115.626     146.232       5.618
  H     -112.219     144.443       3.922
  H     -111.224     144.416       6.199
  H     -112.293     146.190       8.932
  H     -113.399     143.324       8.782
  H     -112.357     142.978      10.931
  H     -110.024     144.444      10.227
  H     -109.495     142.619       8.552
  H     -109.886     142.026      10.185
  P     -112.014     144.600      12.924
  C     -112.012     145.999      15.142
  O     -112.146     145.982      13.726
  O     -110.468     144.214      13.047
  O     -112.972     143.526      13.316
  H     -109.892     144.754      12.481
  H     -112.129     147.001      15.499
  H     -111.043     145.635      15.413
  H     -112.763     145.374      15.579

 6  7  8  9  10  11  12  13  14  15  16  27  31  32  33  34  35 0
 6-311+G(2d,p)
 ****
 36  37 0
 6-311+G(2d,p)
 ****
 1  2  3  4  5  17  18  19  20  21  22  23  24  25 0
 3-21G
 ****
 26  28  29  30  38  39  40  41  42  43  44  45 0
 3-21G
 ****


