%nproc=1
%NoSave
%Mem=1900MB
#P OB98/GEN NMR

erre ene a

0 1
  C     -178.974    -293.884     -94.698
  O     -178.189    -293.957     -95.873
  H     -178.784    -292.944     -94.174
  H     -180.028    -293.927     -94.979
  H     -178.747    -294.729     -94.043
  P     -176.604    -293.803     -95.681
  C     -176.587    -291.397     -96.654
  O     -176.316    -292.229     -95.535
  C     -176.348    -289.936     -96.294
  O     -177.379    -289.466     -95.400
  C     -175.034    -289.664     -95.575
  O     -173.931    -289.629     -96.473
  C     -175.318    -288.288     -94.984
  O     -175.126    -287.279     -95.991
  C     -176.805    -288.390     -94.616
  N     -177.162    -286.342     -89.918
  C     -176.911    -285.787     -91.127
  N     -176.820    -286.393     -92.329
  C     -177.036    -287.714     -92.214
  C     -177.305    -288.419     -91.054
  C     -177.360    -287.678     -89.861
  N     -177.601    -288.257     -88.632
  N     -177.483    -289.758     -91.327
  C     -177.325    -289.862     -92.632
  N     -177.047    -288.655     -93.210
  O     -176.014    -294.152     -97.131
  O     -175.999    -294.667     -94.623
  H     -174.198    -287.349     -96.283
  H     -175.168    -294.622     -97.024
  H     -176.764    -284.711     -91.128
  H     -177.407    -290.787     -93.193
  H     -177.348    -287.477     -94.888
  H     -174.665    -288.039     -94.145
  H     -174.869    -290.380     -94.763
  H     -176.413    -289.347     -97.221
  H     -177.633    -291.529     -96.957
  H     -177.824    -287.660     -87.854
  H     -177.753    -289.260     -88.602
  H     -175.938    -291.699     -97.482
  P     -172.509    -290.136     -95.918
  C     -171.576    -287.715     -95.834
  O     -171.903    -288.895     -95.102
  O     -171.606    -290.188     -97.238
  O     -172.539    -291.447     -95.208
  H     -170.880    -290.832     -97.117
  H     -171.185    -286.977     -95.165
  H     -172.456    -287.335     -96.310
  H     -170.842    -287.948     -96.576

 6  7  8  9  10  11  12  13  14  15  25  28  32  33  34  35 0
 6-311+G(2d,p)
 ****
 36  39  40 0
 6-311+G(2d,p)
 ****
 1  2  3  4  5  16  17  18  19  20  21  22  23  24 0
 3-21G
 ****
 26  27  29  30  31  37  38  41  42  43  44  45  46  47  48 0
 3-21G
 ****


