%nproc=1
%NoSave
%Mem=1900MB
#P OB98/GEN NMR

erre ene a

0 1
  C     -347.317    -454.615    -127.511
  O     -347.013    -455.745    -128.299
  H     -346.966    -453.721    -128.032
  H     -346.815    -454.678    -126.544
  H     -348.400    -454.534    -127.364
  P     -347.369    -457.203    -127.733
  C     -346.066    -459.148    -126.641
  O     -345.985    -457.869    -127.260
  C     -344.995    -459.276    -125.552
  O     -343.706    -459.044    -126.168
  C     -345.179    -458.252    -124.421
  O     -345.206    -458.852    -123.125
  C     -344.097    -457.214    -124.708
  O     -343.657    -456.499    -123.577
  C     -343.009    -458.037    -125.412
  N     -342.144    -457.240    -126.282
  C     -340.768    -457.361    -126.101
  O     -340.224    -458.091    -125.274
  N     -339.991    -456.590    -126.935
  C     -340.446    -455.726    -127.887
  O     -339.700    -455.067    -128.603
  C     -341.909    -455.624    -128.010
  C     -342.677    -456.369    -127.218
  O     -348.199    -458.061    -128.630
  O     -348.117    -456.910    -126.346
  H     -344.390    -455.907    -123.304
  H     -349.076    -457.062    -126.455
  H     -338.998    -456.680    -126.823
  H     -342.300    -454.935    -128.751
  H     -343.760    -456.317    -127.280
  H     -342.370    -458.536    -124.679
  H     -344.503    -456.479    -125.418
  H     -346.159    -457.767    -124.491
  H     -344.997    -460.305    -125.172
  H     -345.911    -459.907    -127.417
  H     -347.061    -459.280    -126.201
  P     -346.417    -458.752    -122.091
  C     -346.805    -457.567    -119.770
  O     -345.891    -458.034    -120.761
  O     -347.223    -459.993    -121.910
  O     -347.381    -457.634    -122.747
  H     -348.296    -457.881    -122.490
  H     -346.260    -457.120    -118.965
  H     -347.380    -458.390    -119.399
  H     -347.460    -456.841    -120.203

 6  7  8  9  10  11  12  13  14  15  16  26  31  32  33  34  35 0
 6-311+G(2d,p)
 ****
 36  37 0
 6-311+G(2d,p)
 ****
 1  2  3  4  5  17  18  19  20  21  22  23  24  25 0
 3-21G
 ****
 27  28  29  30  38  39  40  41  42  43  44  45 0
 3-21G
 ****


