%nproc=1
%NoSave
%Mem=1900MB
#P OB98/GEN NMR

erre ene a

0 1
  C      492.917      33.739     779.253
  O      493.419      33.203     780.459
  H      491.831      33.744     779.291
  H      493.246      33.129     778.402
  H      493.265      34.779     779.120
  P      495.020      33.098     780.594
  C      494.859      30.674     779.667
  O      495.474      31.949     779.554
  C      495.651      29.634     778.862
  O      495.567      29.913     777.451
  C      497.132      29.560     779.212
  O      497.353      28.751     780.370
  C      497.705      28.936     777.939
  O      497.520      27.509     777.932
  C      496.851      29.607     776.854
  N      500.469      31.385     773.800
  C      500.109      30.075     774.087
  N      500.860      29.104     773.530
  N      499.113      29.761     774.875
  C      498.470      30.840     775.387
  C      498.725      32.176     775.165
  C      499.809      32.518     774.272
  O      500.137      33.644     773.916
  N      497.848      32.973     775.865
  C      497.096      32.117     776.534
  N      497.447      30.818     776.301
  O      495.230      32.408     782.020
  O      495.757      34.387     780.488
  H      497.851      27.149     777.095
  H      496.073      32.717     782.404
  H      501.224      31.561     773.168
  H      496.280      32.393     777.198
  H      496.664      28.930     776.010
  H      498.773      29.123     777.852
  H      501.800      29.286     773.203
  H      497.549      30.575     779.351
  H      500.619      28.153     773.751
  H      495.161      28.655     779.040
  H      493.837      30.730     779.279
  H      494.823      30.377     780.730
  P      498.017      29.450     781.642
  C      500.551      28.977     781.361
  O      499.493      29.901     781.200
  O      498.284      28.233     782.651
  O      497.178      30.522     782.284
  H      498.432      28.567     783.559
  H      501.465      29.420     781.025
  H      500.347      28.098     780.786
  H      500.641      28.714     782.394

 6  7  8  9  10  11  12  13  14  15  26  29  33  34 0
 6-311+G(2d,p)
 ****
 36  38  39  40  41 0
 6-311+G(2d,p)
 ****
 1  2  3  4  5  16  17  18  19  20  21  22  23  24  25 0
 3-21G
 ****
 27  28  30  31  32  35  37  42  43  44  45  46  47 0
 3-21G
 ****
 48  49 0
 3-21G
 ****


