%nproc=1
%NoSave
%Mem=1900MB
#P OB98/GEN NMR

erre ene a

0 1
  C     -401.023    -707.171    1019.616
  O     -400.531    -708.372    1020.198
  P     -398.966    -708.414    1020.571
  C     -399.414    -709.385    1022.959
  O     -398.794    -709.548    1021.688
  C     -399.871    -710.743    1023.489
  O     -400.939    -711.268    1022.669
  C     -398.776    -711.810    1023.502
  O     -397.966    -711.668    1024.648
  C     -399.606    -713.096    1023.492
  O     -400.081    -713.412    1024.812
  C     -400.768    -712.708    1022.564
  N     -401.349    -716.424    1019.164
  C     -401.503    -716.430    1020.540
  N     -401.920    -717.599    1021.082
  N     -401.288    -715.406    1021.323
  C     -400.856    -714.315    1020.639
  C     -400.645    -714.171    1019.283
  C     -400.944    -715.303    1018.438
  O     -400.916    -715.305    1017.220
  N     -400.189    -712.926    1018.977
  C     -400.162    -712.293    1020.131
  N     -400.564    -713.085    1021.172
  O     -398.745    -707.041    1021.368
  O     -398.042    -708.550    1019.405
  H     -400.618    -712.670    1025.144
  H     -398.364    -706.359    1020.789
  H     -401.554    -717.238    1018.622
  H     -399.863    -711.258    1020.261
  H     -401.715    -713.173    1022.880
  H     -399.023    -713.957    1023.154
  H     -402.094    -718.446    1020.552
  H     -398.171    -711.752    1022.587
  H     -402.038    -717.644    1022.090
  H     -400.273    -710.598    1024.499
  H     -400.288    -708.730    1022.856
  H     -398.695    -708.924    1023.646
  P     -396.445    -712.153    1024.547
  C     -395.399    -709.777    1024.471
  O     -395.521    -711.005    1025.165
  O     -396.140    -712.076    1022.962
  O     -396.193    -713.523    1025.069
  H     -395.552    -712.822    1022.709
  H     -395.224    -708.977    1025.190
  H     -396.296    -709.548    1023.882
  H     -394.541    -709.828    1023.784
  H     -402.069    -707.273    1019.418
  H     -400.503    -706.979    1018.700
  H     -400.866    -706.357    1020.292

 3  4  5  6  7  8  9  10  11  12  23  26  30  31 0
 6-311+G(2d,p)
 ****
 33  35  36  37  38 0
 6-311+G(2d,p)
 ****
 1  2  13  14  15  16  17  18  19  20  21  22  24  25 0
 3-21G
 ****
 27  28  29  32  34  39  40  41  42  43  44  45  46  47  48  49 0
 3-21G
 ****


