%nproc=1
%NoSave
%Mem=1900MB
#P OB98/GEN NMR

erre ene a

0 1
  C     -102.614    -113.347      12.362
  O     -102.075    -112.464      13.325
  H     -103.102    -114.176      12.881
  H     -101.826    -113.752      11.721
  H     -103.360    -112.830      11.752
  P     -101.163    -111.242      12.829
  C     -103.069    -109.538      13.146
  O     -101.753    -109.922      13.525
  C     -103.553    -108.354      13.988
  O     -103.480    -108.726      15.390
  C     -102.727    -107.079      13.787
  O     -103.611    -105.956      13.838
  C     -101.806    -107.089      14.991
  O     -101.339    -105.789      15.301
  C     -102.681    -107.736      16.067
  N     -101.863    -108.327      17.129
  C     -101.268    -107.434      18.027
  O     -101.455    -106.219      17.914
  N     -100.426    -107.924      18.992
  C     -100.151    -109.192      19.025
  N      -99.277    -109.606      19.980
  C     -100.734    -110.168      18.080
  C     -101.575    -109.671      17.169
  O     -100.957    -111.132      11.354
  O      -99.776    -111.470      13.600
  H     -100.691    -105.843      16.036
  H      -99.178    -112.015      13.055
  H     -100.470    -111.213      18.145
  H     -102.043    -110.312      16.428
  H     -103.361    -107.000      16.516
  H     -100.931    -107.718      14.781
  H     -102.170    -107.074      12.845
  H     -104.614    -108.176      13.762
  H      -98.884    -108.898      20.590
  H     -103.730    -110.396      13.305
  H      -98.956    -110.560      20.078
  H     -103.087    -109.273      12.084
  P     -103.821    -105.019      12.551
  C     -105.902    -105.860      11.318
  O     -105.396    -104.901      12.244
  O     -102.982    -105.383      11.370
  O     -103.442    -103.551      13.079
  H     -103.080    -103.026      12.339
  H     -106.951    -105.702      11.179
  H     -105.737    -106.846      11.700
  H     -105.398    -105.751      10.381

 6  7  8  9  10  11  12  13  14  15  16  26  30  31  32  33  35 0
 6-311+G(2d,p)
 ****
 37  38 0
 6-311+G(2d,p)
 ****
 1  2  3  4  5  17  18  19  20  21  22  23  24  25 0
 3-21G
 ****
 27  28  29  34  36  39  40  41  42  43  44  45  46 0
 3-21G
 ****


