%nproc=1
%NoSave
%Mem=1900MB
#P OB98/GEN NMR

erre ene a

0 1
  C       76.266      88.605     -57.070
  O       76.007      88.151     -55.757
  H       77.344      88.558     -57.250
  H       75.937      89.641     -57.193
  H       75.762      87.965     -57.800
  P       74.501      88.197     -55.216
  C       72.356      86.857     -55.768
  O       73.633      87.298     -56.220
  C       71.367      86.794     -56.929
  O       71.004      88.125     -57.350
  C       71.909      86.100     -58.173
  O       71.936      84.699     -57.991
  C       70.932      86.605     -59.222
  O       69.690      85.888     -59.157
  C       70.738      88.074     -58.771
  N       71.586      89.021     -59.490
  C       71.009      89.637     -60.607
  O       69.858      89.362     -60.943
  N       71.766      90.535     -61.320
  C       72.967      90.827     -60.933
  N       73.660      91.727     -61.679
  C       73.598      90.225     -59.742
  C       72.864      89.332     -59.081
  O       73.932      89.558     -54.956
  O       74.541      87.311     -53.883
  H       69.011      86.487     -59.527
  H       74.683      87.877     -53.101
  H       74.600      90.505     -59.449
  H       73.254      88.843     -58.194
  H       69.693      88.381     -58.910
  H       71.316      86.490     -60.235
  H       72.906      86.484     -58.418
  H       70.454      86.301     -56.570
  H       73.177      92.128     -62.477
  H       72.013      87.578     -55.019
  H       74.530      92.147     -61.386
  H       72.436      85.874     -55.288
  P       72.891      83.756     -58.867
  C       75.442      83.524     -59.098
  O       74.369      84.368     -58.710
  O       72.449      83.533     -60.273
  O       72.982      82.410     -58.006
  H       72.158      81.874     -58.116
  H       76.370      84.036     -58.950
  H       75.338      83.267     -60.131
  H       75.427      82.633     -58.505

 6  7  8  9  10  11  12  13  14  15  16  26  30  31  32  33  35 0
 6-311+G(2d,p)
 ****
 37  38 0
 6-311+G(2d,p)
 ****
 1  2  3  4  5  17  18  19  20  21  22  23  24  25 0
 3-21G
 ****
 27  28  29  34  36  39  40  41  42  43  44  45  46 0
 3-21G
 ****


