%nproc=1
%NoSave
%Mem=1900MB
#P OB98/GEN NMR

erre ene a

0 1
  C      207.225    -497.051     221.662
  O      208.563    -497.086     222.104
  H      207.174    -496.455     220.748
  H      206.599    -496.580     222.425
  H      206.848    -498.054     221.447
  P      209.007    -498.231     223.129
  C      211.140    -498.826     221.801
  O      209.905    -499.296     222.329
  C      211.303    -499.201     220.329
  O      210.357    -498.459     219.531
  C      212.697    -498.864     219.788
  O      213.666    -499.880     219.988
  C      212.417    -498.659     218.302
  O      212.505    -499.898     217.578
  C      210.980    -498.125     218.281
  N      211.573    -494.253     214.995
  C      211.936    -495.579     214.847
  N      212.566    -495.894     213.696
  N      211.713    -496.492     215.756
  C      211.166    -496.006     216.891
  C      210.782    -494.711     217.163
  C      210.965    -493.721     216.123
  O      210.647    -492.539     216.199
  N      210.297    -494.583     218.442
  C      210.471    -495.779     218.969
  N      210.919    -496.694     218.045
  O      207.649    -499.049     223.382
  O      209.582    -497.750     224.426
  H      213.418    -500.234     217.663
  H      207.651    -499.411     224.286
  H      211.744    -493.603     214.252
  H      210.249    -496.049     219.996
  H      210.388    -498.603     217.492
  H      213.152    -497.983     217.857
  H      212.842    -495.218     213.002
  H      213.053    -497.917     220.202
  H      213.017    -496.809     213.629
  H      211.070    -500.265     220.198
  H      211.928    -499.289     222.395
  H      211.221    -497.743     221.933
  P      215.059    -499.555     220.701
  C      215.015    -501.073     222.842
  O      214.890    -499.790     222.269
  O      215.167    -497.964     220.573
  O      216.251    -500.245     220.123
  H      215.741    -497.716     219.824
  H      214.866    -501.007     223.900
  H      215.993    -501.459     222.643
  H      214.281    -501.726     222.418

 6  7  8  9  10  11  12  13  14  15  26  29  33  34 0
 6-311+G(2d,p)
 ****
 36  38  39  40  41 0
 6-311+G(2d,p)
 ****
 1  2  3  4  5  16  17  18  19  20  21  22  23  24  25 0
 3-21G
 ****
 27  28  30  31  32  35  37  42  43  44  45  46  47 0
 3-21G
 ****
 48  49 0
 3-21G
 ****


