%nproc=1
%NoSave
%Mem=1900MB
#P OB98/GEN NMR

erre ene a

0 1
  C     -142.793     330.512     319.191
  O     -143.451     330.591     320.455
  P     -142.734     329.979     321.751
  C     -143.136     327.874     323.187
  O     -143.123     328.426     321.879
  C     -142.730     326.390     323.163
  O     -143.790     325.601     322.551
  C     -141.437     326.131     322.377
  O     -140.480     325.364     323.108
  C     -141.929     325.521     321.076
  O     -140.941     324.733     320.424
  C     -143.212     324.802     321.505
  N     -144.133     324.609     320.380
  C     -143.769     323.678     319.421
  O     -142.689     323.079     319.441
  N     -144.652     323.488     318.394
  C     -145.806     324.185     318.197
  O     -146.545     324.012     317.235
  C     -146.118     325.206     319.208
  C     -145.278     325.366     320.241
  O     -142.879     330.769     323.009
  O     -141.191     329.908     321.306
  H     -141.260     324.525     319.521
  H     -140.643     330.147     322.078
  H     -144.403     322.797     317.699
  H     -147.010     325.797     319.075
  H     -145.473     326.121     320.991
  H     -142.989     323.806     321.913
  H     -142.194     326.335     320.390
  H     -140.912     327.070     322.157
  H     -142.614     326.066     324.203
  H     -144.139     327.957     323.605
  H     -142.481     328.462     323.838
  P     -139.073     325.924     323.630
  C     -136.583     325.438     323.121
  O     -137.920     325.359     322.678
  O     -138.819     325.773     325.091
  O     -139.142     327.482     323.246
  H     -138.757     328.007     323.966
  H     -135.920     325.365     322.254
  H     -136.370     324.600     323.790
  H     -136.390     326.380     323.638
  H     -143.407     330.965     318.441
  H     -142.623     329.486     318.941
  H     -141.856     331.026     319.244

 3  4  5  6  7  8  9  10  11  12  13  23  28  29  30  31  32 0
 6-311+G(2d,p)
 ****
 33  34 0
 6-311+G(2d,p)
 ****
 1  2  14  15  16  17  18  19  20  21  22  24  25  26  27 0
 3-21G
 ****
 35  36  37  38  39  40  41  42  43  44  45 0
 3-21G
 ****


