%nproc=1
%NoSave
%Mem=1900MB
#P OB98/GEN NMR

erre ene a

0 1
  C     -392.156    -239.883     149.823
  O     -392.411    -240.360     148.515
  H     -392.290    -240.707     150.530
  H     -392.855    -239.080     150.078
  H     -391.127    -239.515     149.895
  P     -392.325    -239.291     147.324
  C     -393.486    -237.023     146.802
  O     -393.468    -238.199     147.602
  C     -394.228    -235.916     147.544
  O     -393.542    -235.610     148.782
  C     -394.293    -234.595     146.780
  O     -395.290    -234.610     145.771
  C     -394.610    -233.627     147.908
  O     -396.017    -233.590     148.194
  C     -393.820    -234.226     149.095
  N     -392.608    -233.473     149.386
  C     -392.621    -232.730     150.566
  O     -393.582    -232.704     151.328
  N     -391.494    -231.995     150.824
  C     -390.399    -231.891     150.016
  O     -389.455    -231.150     150.264
  C     -390.437    -232.707     148.781
  C     -391.522    -233.438     148.527
  O     -392.878    -240.112     146.064
  O     -390.962    -238.728     147.077
  H     -392.135    -240.395     145.498
  H     -396.118    -233.025     148.991
  H     -391.495    -231.444     151.669
  H     -389.581    -232.649     148.116
  H     -391.581    -234.023     147.613
  H     -394.444    -234.228     150.001
  H     -394.312    -232.603     147.661
  H     -393.312    -234.345     146.366
  H     -395.237    -236.269     147.790
  H     -394.006    -237.232     145.861
  H     -392.452    -236.727     146.581
  P     -395.032    -233.765     144.434
  C     -394.716    -231.211     143.921
  O     -395.053    -232.216     144.852
  O     -396.421    -233.980     143.660
  O     -393.815    -234.194     143.681
  H     -397.185    -234.023     144.254
  H     -394.790    -230.252     144.389
  H     -395.388    -231.255     143.090
  H     -393.714    -231.364     143.578

 6  7  8  9  10  11  12  13  14  15  16  27  31  32  33  34  35 0
 6-311+G(2d,p)
 ****
 36  37 0
 6-311+G(2d,p)
 ****
 1  2  3  4  5  17  18  19  20  21  22  23  24  25 0
 3-21G
 ****
 26  28  29  30  38  39  40  41  42  43  44  45 0
 3-21G
 ****


