%nproc=1
%NoSave
%Mem=1900MB
#P OB98/GEN NMR

erre ene a

0 1
  C       -0.912     -24.675      21.600
  O       -1.227     -24.124      20.318
  P       -0.104     -23.224      19.605
  C       -0.936     -23.396      17.132
  O       -0.803     -22.603      18.299
  C       -2.168     -24.301      17.226
  O       -3.378     -23.485      17.257
  C       -2.310     -25.300      16.071
  O       -2.839     -26.510      16.631
  C       -3.340     -24.641      15.173
  O       -3.985     -25.578      14.324
  C       -4.246     -23.983      16.218
  N       -5.078     -22.921      15.659
  C       -6.097     -23.307      14.798
  O       -6.264     -24.471      14.440
  N       -6.892     -22.300      14.321
  C       -6.719     -20.966      14.556
  O       -7.462     -20.104      14.103
  C       -5.556     -20.610      15.382
  C       -4.801     -21.589      15.885
  O        0.883     -24.342      19.035
  O        0.521     -22.234      20.530
  H        0.425     -25.137      18.715
  H       -4.670     -25.116      13.800
  H       -7.658     -22.561      13.720
  H       -5.351     -19.559      15.542
  H       -3.926     -21.361      16.478
  H       -4.905     -24.731      16.678
  H       -2.858     -23.881      14.548
  H       -1.361     -25.507      15.569
  H       -2.120     -24.841      18.179
  H       -0.047     -24.022      17.007
  H       -0.991     -22.741      16.256
  P       -2.078     -27.892      16.311
  C       -2.273     -29.282      18.520
  O       -2.754     -29.023      17.221
  O       -0.683     -27.620      17.056
  O       -1.908     -28.201      14.861
  H       -0.793     -27.266      17.953
  H       -3.002     -29.902      19.047
  H       -2.134     -28.356      19.083
  H       -1.326     -29.825      18.464
  H       -1.743     -25.248      21.956
  H       -0.705     -23.882      22.288
  H       -0.053     -25.307      21.515

 3  4  5  6  7  8  9  10  11  12  13  24  28  29  30  31  32 0
 6-311+G(2d,p)
 ****
 33  34 0
 6-311+G(2d,p)
 ****
 1  2  14  15  16  17  18  19  20  21  22  23  25  26  27 0
 3-21G
 ****
 35  36  37  38  39  40  41  42  43  44  45 0
 3-21G
 ****


