%nproc=1
%NoSave
%Mem=1900MB
#P OB98/GEN NMR

erre ene a

0 1
  C        5.470      42.927    -131.509
  O        6.137      43.779    -132.427
  P        5.298      44.982    -133.076
  C        5.175      43.680    -135.307
  O        4.450      44.347    -134.282
  C        4.505      43.875    -136.662
  O        3.139      43.380    -136.587
  C        4.441      45.337    -137.131
  O        4.777      45.401    -138.524
  C        2.969      45.689    -136.996
  O        2.588      46.738    -137.879
  C        2.331      44.335    -137.303
  N       -2.339      46.031    -138.206
  C       -1.187      46.176    -138.954
  N       -1.287      46.929    -140.073
  N       -0.042      45.637    -138.636
  C       -0.097      44.885    -137.509
  C       -1.177      44.659    -136.688
  C       -2.425      45.311    -137.022
  O       -3.456      45.297    -136.352
  N       -0.848      43.827    -135.649
  C        0.429      43.554    -135.836
  N        0.942      44.212    -136.925
  O        6.425      45.845    -133.814
  O        4.526      45.812    -132.110
  H        2.767      46.427    -138.787
  H        6.398      46.767    -133.491
  H       -3.191      46.483    -138.488
  H        1.025      42.916    -135.196
  H        2.407      44.109    -138.375
  H        2.768      46.007    -135.968
  H       -2.147      47.343    -140.395
  H        5.083      46.018    -136.564
  H       -0.459      47.027    -140.647
  H        5.027      43.254    -137.402
  H        5.219      42.610    -135.078
  H        6.196      44.075    -135.333
  P        5.466      46.765    -139.019
  C        3.222      47.692    -139.961
  O        4.295      47.856    -139.055
  O        5.775      46.485    -140.563
  O        6.688      47.140    -138.248
  H        6.511      47.048    -140.871
  H        3.238      46.712    -140.447
  H        3.284      48.466    -140.730
  H        2.280      47.802    -139.420
  H        6.149      42.177    -131.161
  H        4.640      42.459    -131.995
  H        5.118      43.503    -130.679

 3  4  5  6  7  8  9  10  11  12  23  26  30  31  33  0
 6-311+G(2d,p)
 ****
 35  36  37  38 0
 6-311+G(2d,p)
 ****
 1  2  13  14  15  16  17  18  19  20  21  22  24  25  27  28  29 0
 3-21G
 ****
 32  34  39  40  41  42  43  44  45  46  47  48  49 0
 3-21G
 ****


