%nproc=1
%NoSave
%Mem=1900MB
#P OB98/GEN NMR

erre ene a

0 1
  C       32.363    -108.492     -60.655
  O       32.284    -109.093     -59.363
  P       31.726    -108.214     -58.144
  C       32.623    -106.449     -56.486
  O       32.898    -107.241     -57.639
  C       33.840    -105.579     -56.124
  O       34.953    -106.447     -55.782
  C       34.345    -104.676     -57.254
  O       33.788    -103.372     -57.379
  C       35.808    -104.484     -56.850
  O       35.909    -103.432     -55.871
  C       36.181    -105.817     -56.206
  N       39.780    -109.447     -56.487
  C       39.264    -108.764     -55.441
  N       38.310    -107.812     -55.451
  C       37.865    -107.595     -56.701
  C       38.294    -108.216     -57.863
  C       39.302    -109.185     -57.727
  N       39.834    -109.873     -58.794
  N       37.612    -107.725     -58.958
  C       36.802    -106.808     -58.464
  N       36.907    -106.703     -57.104
  O       31.007    -108.962     -57.075
  O       30.734    -107.192     -58.884
  H       36.850    -103.376     -55.619
  H       29.956    -107.035     -58.314
  H       39.678    -109.013     -54.466
  H       36.124    -106.202     -59.052
  H       36.807    -105.689     -55.313
  H       36.438    -104.190     -57.691
  H       34.294    -105.193     -58.221
  H       33.596    -104.973     -55.241
  H       32.375    -107.101     -55.644
  H       40.587    -110.519     -58.613
  H       39.532    -109.648     -59.731
  H       31.731    -105.857     -56.698
  P       32.832    -102.988     -58.606
  C       33.229    -102.828     -61.190
  O       33.785    -102.933     -59.895
  O       31.993    -101.773     -58.402
  O       31.999    -104.338     -58.834
  H       32.525    -105.081     -59.174
  H       34.029    -102.590     -61.896
  H       32.475    -102.039     -61.228
  H       32.781    -103.787     -61.475
  H       32.752    -109.201     -61.355
  H       33.010    -107.641     -60.613
  H       31.387    -108.183     -60.965

 3  4  5  6  7  8  9  10  11  12  22  25  29  30  31  32 0
 6-311+G(2d,p)
 ****
 33  36  37 0
 6-311+G(2d,p)
 ****
 1  2  13  14  15  16  17  18  19  20  21  23  24  26 0
 3-21G
 ****
 27  28  34  35  38  39  40  41  42  43  44  45  46  47  48 0
 3-21G
 ****


