%nproc=1
%NoSave
%Mem=1900MB
#P OB98/GEN NMR

erre ene a

0 1
  C     -196.656     167.861      63.740
  O     -195.850     168.974      64.092
  P     -194.270     168.711      64.242
  C     -192.823     167.324      65.917
  O     -194.075     167.923      65.622
  C     -192.785     166.911      67.391
  O     -192.724     168.078      68.237
  C     -194.001     166.118      67.849
  O     -193.867     164.753      67.490
  C     -193.973     166.363      69.353
  O     -193.027     165.490      70.001
  C     -193.517     167.827      69.430
  N     -196.356     170.582      72.581
  C     -195.443     169.577      72.852
  N     -195.228     169.299      74.159
  N     -194.803     168.909      71.929
  C     -195.128     169.283      70.671
  C     -196.024     170.251      70.274
  C     -196.689     171.019      71.304
  O     -197.426     171.983      71.118
  N     -196.106     170.331      68.909
  C     -195.237     169.435      68.483
  N     -194.602     168.789      69.511
  O     -193.689     170.169      64.536
  O     -193.620     168.056      63.062
  H     -193.205     164.571      69.736
  H     -193.326     170.567      63.720
  H     -196.807     171.074      73.331
  H     -195.016     169.236      67.444
  H     -192.865     168.011      70.294
  H     -194.946     166.170      69.820
  H     -195.703     169.756      74.920
  H     -194.917     166.541      67.421
  H     -194.565     168.563      74.373
  H     -191.864     166.333      67.554
  H     -192.025     168.046      65.724
  H     -192.678     166.453      65.267
  P     -195.166     164.003      66.927
  C     -197.331     163.072      68.026
  O     -195.972     163.439      68.193
  O     -194.567     162.689      66.237
  O     -195.976     164.805      65.961
  H     -195.089     162.470      65.438
  H     -197.564     162.275      68.733
  H     -197.534     162.723      67.012
  H     -197.962     163.938      68.242
  H     -197.679     168.168      63.673
  H     -196.560     167.101      64.487
  H     -196.337     167.475      62.795

 3  4  5  6  7  8  9  10  11  12  23  26  30  31 0
 6-311+G(2d,p)
 ****
 33  35  36  37  38 0
 6-311+G(2d,p)
 ****
 1  2  13  14  15  16  17  18  19  20  21  22  24  25 0
 3-21G
 ****
 27  28  29  32  34  39  40  41  42  43  44  45  46  47  48  49 0
 3-21G
 ****


