%nproc=1
%NoSave
%Mem=1900MB
#P OB98/GEN NMR

erre ene a

0 1
  C       20.157    -147.339    -208.543
  O       21.421    -147.320    -209.235
  P       22.764    -147.035    -208.400
  C       23.742    -149.447    -208.220
  O       23.882    -148.134    -208.740
  C       24.728    -150.421    -208.887
  O       24.263    -150.766    -210.226
  C       26.156    -149.874    -209.036
  O       27.051    -150.993    -208.917
  C       26.162    -149.355    -210.463
  O       27.470    -149.202    -210.999
  C       25.324    -150.439    -211.149
  N       24.777    -150.038    -212.449
  C       25.580    -150.207    -213.571
  O       26.740    -150.607    -213.544
  N       25.007    -149.858    -214.772
  C       23.760    -149.335    -214.946
  O       23.317    -149.016    -216.042
  C       22.966    -149.155    -213.722
  C       23.501    -149.506    -212.554
  O       22.323    -147.448    -206.911
  O       23.243    -145.618    -208.419
  H       27.375    -149.117    -211.966
  H       22.619    -146.764    -206.281
  H       25.567    -149.986    -215.598
  H       21.969    -148.748    -213.816
  H       22.928    -149.393    -211.637
  H       25.925    -151.342    -211.273
  H       25.673    -148.374    -210.492
  H       26.405    -149.111    -208.295
  H       24.729    -151.353    -208.306
  H       22.722    -149.801    -208.401
  H       23.913    -149.423    -207.140
  P       27.919    -151.140    -207.568
  C       26.271    -151.784    -205.638
  O       27.172    -152.206    -206.638
  O       27.578    -149.738    -206.862
  O       29.378    -151.345    -207.793
  H       26.631    -149.520    -206.889
  H       25.638    -150.963    -205.991
  H       26.828    -151.464    -204.753
  H       25.626    -152.625    -205.365
  H       19.371    -147.541    -209.241
  H       19.989    -146.388    -208.082
  H       20.173    -148.102    -207.793

 3  4  5  6  7  8  9  10  11  12  13  23  28  29  30  31  32 0
 6-311+G(2d,p)
 ****
 33  34 0
 6-311+G(2d,p)
 ****
 1  2  14  15  16  17  18  19  20  21  22  24  25  26 0
 3-21G
 ****
 27  35  36  37  38  39  40  41  42  43  44  45 0
 3-21G
 ****


