%nproc=1
%NoSave
%Mem=1900MB
#P OB98/GEN NMR

erre ene a

0 1
  C       54.560     -77.708    -113.774
  O       53.568     -78.593    -113.282
  P       53.770     -80.165    -113.523
  C       52.889     -79.627    -115.906
  O       53.747     -80.429    -115.107
  C       53.123     -79.895    -117.393
  O       54.479     -79.513    -117.749
  C       52.947     -81.365    -117.788
  O       52.414     -81.440    -119.119
  C       54.367     -81.890    -117.838
  O       54.472     -83.041    -118.676
  C       55.109     -80.659    -118.359
  N       59.758     -80.255    -120.301
  C       58.543     -79.895    -120.851
  N       58.569     -79.448    -122.126
  N       57.408     -79.962    -120.208
  C       57.535     -80.435    -118.944
  C       58.684     -80.809    -118.284
  C       59.932     -80.740    -119.012
  O       61.037     -81.071    -118.592
  N       58.419     -81.202    -116.998
  C       57.108     -81.110    -116.888
  N       56.524     -80.683    -118.054
  O       52.382     -80.784    -113.018
  O       54.921     -80.765    -112.789
  H       55.417     -83.286    -118.703
  H       52.508     -81.217    -112.153
  H       60.605     -80.195    -120.843
  H       56.534     -81.361    -116.006
  H       55.000     -80.554    -119.445
  H       54.703     -82.167    -116.833
  H       59.400     -79.436    -122.696
  H       52.311     -81.944    -117.110
  H       57.686     -79.219    -122.566
  H       52.447     -79.255    -117.975
  H       53.088     -78.575    -115.697
  H       51.845     -79.836    -115.646
  P       51.086     -82.327    -119.296
  C       52.512     -84.485    -119.585
  O       51.495     -83.815    -118.869
  O       50.916     -82.420    -120.884
  O       49.880     -81.762    -118.623
  H       49.980     -82.569    -121.114
  H       53.348     -84.688    -118.908
  H       52.874     -83.902    -120.435
  H       52.118     -85.436    -119.954
  H       54.288     -76.700    -113.538
  H       54.640     -77.817    -114.835
  H       55.501     -77.939    -113.320

 3  4  5  6  7  8  9  10  11  12  23  26  30  31 0
 6-311+G(2d,p)
 ****
 33  35  36  37  38 0
 6-311+G(2d,p)
 ****
 1  2  13  14  15  16  17  18  19  20  21  22  24  25 0
 3-21G
 ****
 27  28  29  32  34  39  40  41  42  43  44  45  46  47  48  49 0
 3-21G
 ****


