%nproc=1
%NoSave
%Mem=1900MB
#P OB98/GEN NMR

erre ene a

0 1
  C     -303.722    -382.980     461.329
  O     -302.329    -383.226     461.278
  H     -304.115    -383.394     462.261
  H     -304.221    -383.462     460.484
  H     -303.908    -381.904     461.311
  P     -301.556    -382.727     459.963
  C     -300.114    -381.217     461.476
  O     -300.999    -381.271     460.362
  C     -299.897    -379.764     461.913
  O     -301.165    -379.229     462.372
  C     -298.893    -379.621     463.059
  O     -298.109    -378.440     462.855
  C     -299.773    -379.438     464.286
  O     -299.108    -378.734     465.332
  C     -300.978    -378.709     463.694
  N     -303.483    -377.177     467.866
  C     -302.388    -376.696     467.244
  N     -301.794    -377.155     466.116
  C     -302.477    -378.204     465.621
  C     -303.606    -378.798     466.143
  C     -304.111    -378.251     467.334
  N     -305.215    -378.755     467.991
  N     -303.989    -379.876     465.360
  C     -303.112    -379.915     464.378
  N     -302.166    -378.924     464.496
  O     -302.338    -382.783     458.693
  O     -300.234    -383.626     460.000
  H     -299.774    -378.495     466.007
  H     -299.856    -383.671     460.899
  H     -301.926    -375.831     467.706
  H     -303.109    -380.632     463.565
  H     -300.823    -377.622     463.627
  H     -300.068    -380.423     464.673
  H     -298.233    -380.485     463.153
  H     -299.593    -379.173     461.042
  H     -299.149    -381.669     461.216
  H     -305.519    -378.286     468.832
  H     -305.705    -379.540     467.594
  H     -300.559    -381.796     462.292
  P     -296.720    -378.577     462.076
  C     -297.495    -377.241     460.006
  O     -296.996    -378.486     460.494
  O     -295.833    -379.698     462.505
  O     -296.019    -377.161     462.374
  H     -295.058    -377.307     462.497
  H     -297.637    -377.304     458.947
  H     -296.792    -376.464     460.226
  H     -298.429    -377.021     460.479

 6  7  8  9  10  11  12  13  14  15  25  28  32  33  34  35 0
 6-311+G(2d,p)
 ****
 36  39  40 0
 6-311+G(2d,p)
 ****
 1  2  3  4  5  16  17  18  19  20  21  22  23  24 0
 3-21G
 ****
 26  27  29  30  31  37  38  41  42  43  44  45  46  47 0
 3-21G
 ****
 48 0
 3-21G
 ****


