%nproc=1
%NoSave
%Mem=1900MB
#P OB98/GEN NMR

erre ene a

0 1
  C      -69.517    -133.243     266.806
  O      -68.190    -132.770     266.705
  H      -70.178    -132.549     266.277
  H      -69.823    -133.294     267.856
  H      -69.600    -134.231     266.347
  P      -67.072    -133.592     267.519
  C      -66.109    -132.256     269.548
  O      -67.191    -133.012     269.017
  C      -66.370    -130.766     269.360
  O      -67.757    -130.447     269.630
  C      -65.559    -129.859     270.290
  O      -64.213    -129.698     269.878
  C      -66.354    -128.573     270.148
  O      -66.068    -127.963     268.879
  C      -67.800    -129.113     270.204
  N      -68.353    -129.148     271.560
  C      -69.021    -127.991     271.998
  O      -69.130    -127.012     271.264
  N      -69.533    -127.966     273.277
  C      -69.404    -129.008     274.045
  N      -69.921    -128.916     275.303
  C      -68.714    -130.242     273.621
  C      -68.221    -130.244     272.385
  O      -65.697    -132.958     267.003
  O      -67.147    -135.081     267.413
  H      -66.743    -127.274     268.739
  H      -64.945    -133.291     267.552
  H      -68.615    -131.079     274.308
  H      -67.703    -131.117     272.007
  H      -68.467    -128.510     269.568
  H      -66.120    -127.833     270.915
  H      -65.616    -130.201     271.330
  H      -66.180    -130.524     268.304
  H      -70.329    -128.040     275.584
  H      -65.197    -132.552     269.021
  H      -69.735    -129.610     276.022
  H      -65.993    -132.472     270.615
  P      -63.149    -129.274     271.005
  C      -62.543    -126.742     270.880
  O      -63.432    -127.739     271.368
  O      -61.767    -129.212     270.199
  O      -63.073    -130.206     272.182
  H      -61.021    -129.498     270.764
  H      -62.872    -125.779     271.210
  H      -62.531    -126.768     269.810
  H      -61.558    -126.929     271.253

 6  7  8  9  10  11  12  13  14  15  16  26  30  31  32  33  35 0
 6-311+G(2d,p)
 ****
 37  38 0
 6-311+G(2d,p)
 ****
 1  2  3  4  5  17  18  19  20  21  22  23  24  25 0
 3-21G
 ****
 27  28  29  34  36  39  40  41  42  43  44  45  46 0
 3-21G
 ****


