%nproc=1
%NoSave
%Mem=1900MB
#P OB98/GEN NMR

erre ene a

0 1
  C      568.340     196.666     333.688
  O      567.965     195.498     332.991
  P      566.460     195.330     332.446
  C      566.022     193.990     334.602
  O      565.552     195.016     333.728
  C      565.736     194.364     336.054
  O      566.371     195.625     336.397
  C      564.260     194.586     336.363
  O      563.406     193.466     336.275
  C      564.340     195.301     337.702
  O      564.531     194.376     338.773
  C      565.603     196.176     337.513
  N      565.271     197.579     337.294
  C      564.666     198.242     338.352
  O      564.413     197.697     339.430
  N      564.328     199.552     338.135
  C      564.478     200.233     336.966
  O      564.109     201.392     336.816
  C      565.108     199.486     335.870
  C      565.468     198.213     336.077
  O      566.307     194.363     331.317
  O      566.031     196.830     332.083
  H      564.907     194.880     339.527
  H      566.052     197.451     332.830
  H      563.863     200.036     338.888
  H      565.261     200.002     334.926
  H      565.937     197.636     335.275
  H      566.242     196.110     338.396
  H      563.420     195.857     337.914
  H      563.873     195.310     335.637
  H      566.171     193.591     336.699
  H      567.106     193.881     334.469
  H      565.557     193.038     334.338
  P      562.247     193.322     335.173
  C      560.529     193.086     337.100
  O      560.852     193.680     335.864
  O      562.301     192.103     334.305
  O      562.508     194.621     334.261
  H      562.251     194.425     333.340
  H      559.527     193.416     337.398
  H      561.239     193.401     337.871
  H      560.540     191.996     337.012
  H      569.370     196.598     333.970
  H      567.736     196.767     334.565
  H      568.198     197.519     333.057

 3  4  5  6  7  8  9  10  11  12  13  23  28  29  30  31  32 0
 6-311+G(2d,p)
 ****
 33  34 0
 6-311+G(2d,p)
 ****
 1  2  14  15  16  17  18  19  20  21  22  24  25  26  27 0
 3-21G
 ****
 35  36  37  38  39  40  41  42  43  44  45 0
 3-21G
 ****


