%nproc=1
%NoSave
%Mem=1900MB
#P OB98/GEN NMR

erre ene a

0 1
  C       88.191      33.403      30.677
  O       86.962      33.771      30.081
  H       88.904      34.220      30.542
  H       88.588      32.505      30.195
  H       88.053      33.226      31.746
  P       85.766      32.706      30.192
  C       85.141      30.632      28.772
  O       86.149      31.569      29.128
  C       85.756      29.417      28.083
  O       86.828      28.874      28.876
  C       84.786      28.265      27.853
  O       83.991      28.497      26.702
  C       85.756      27.112      27.646
  O       86.270      27.145      26.300
  C       86.883      27.440      28.644
  N       89.565      25.495      32.566
  C       89.953      25.973      31.365
  N       89.183      26.436      30.355
  C       87.882      26.369      30.679
  C       87.337      25.905      31.869
  C       88.243      25.460      32.848
  N       87.843      24.982      34.077
  N       85.960      25.987      31.842
  C       85.682      26.543      30.679
  N       86.807      26.758      29.925
  O       84.389      33.266      30.098
  O       86.117      31.999      31.587
  H       87.040      26.545      26.266
  H       87.079      31.886      31.681
  H       91.025      25.991      31.188
  H       84.690      26.821      30.343
  H       87.872      27.213      28.229
  H       85.282      26.139      27.783
  H       84.179      28.069      28.743
  H       86.194      29.756      27.135
  H       84.400      31.099      28.114
  H       88.540      24.528      34.648
  H       86.856      24.842      34.233
  H       84.638      30.327      29.696
  P       82.406      28.253      26.739
  C       80.847      26.219      26.515
  O       82.186      26.663      26.704
  O       81.627      29.008      25.720
  O       81.976      28.646      28.227
  H       81.111      29.099      28.223
  H       80.823      25.149      26.509
  H       80.477      26.589      25.582
  H       80.234      26.585      27.312

 6  7  8  9  10  11  12  13  14  15  25  28  32  33  34  35 0
 6-311+G(2d,p)
 ****
 36  39  40 0
 6-311+G(2d,p)
 ****
 1  2  3  4  5  16  17  18  19  20  21  22  23  24 0
 3-21G
 ****
 26  27  29  30  31  37  38  41  42  43  44  45  46  47 0
 3-21G
 ****
 48 0
 3-21G
 ****


