%nproc=1
%NoSave
%Mem=1900MB
#P OB98/GEN NMR

erre ene a

0 1
  C      143.737    -310.482     -37.050
  O      143.190    -310.192     -38.317
  H      144.639    -311.088     -37.192
  H      143.029    -311.053     -36.443
  H      144.014    -309.558     -36.532
  P      141.753    -309.475     -38.402
  C      140.464    -311.678     -38.674
  O      140.713    -310.567     -37.822
  C      138.966    -311.984     -38.771
  O      138.513    -312.599     -37.534
  C      138.094    -310.746     -39.022
  O      137.151    -311.031     -40.060
  C      137.372    -310.538     -37.697
  O      136.151    -309.821     -37.853
  C      137.251    -311.985     -37.196
  N      136.971    -312.071     -35.767
  C      135.665    -312.427     -35.403
  O      134.809    -312.608     -36.274
  N      135.349    -312.525     -34.074
  C      136.242    -312.242     -33.177
  N      135.863    -312.350     -31.871
  C      137.621    -311.819     -33.509
  C      137.915    -311.764     -34.813
  O      141.403    -308.929     -39.748
  O      141.787    -308.366     -37.247
  H      135.542    -310.361     -38.404
  H      141.094    -307.683     -37.427
  H      138.327    -311.584     -32.728
  H      138.905    -311.471     -35.152
  H      136.456    -312.518     -37.737
  H      138.018    -309.964     -37.017
  H      138.667    -309.869     -39.308
  H      138.821    -312.743     -39.557
  H      134.909    -312.643     -31.684
  H      141.006    -312.547     -38.283
  H      136.470    -312.149     -31.088
  H      140.842    -311.436     -39.673
  P      137.654    -310.762     -41.565
  C      136.776    -308.340     -41.858
  O      137.911    -309.185     -41.724
  O      136.340    -311.029     -42.440
  O      138.790    -311.639     -41.985
  H      136.380    -311.917     -42.845
  H      137.097    -307.324     -41.954
  H      136.155    -308.437     -40.992
  H      136.221    -308.623     -42.728

 6  7  8  9  10  11  12  13  14  15  16  26  30  31  32  33  35 0
 6-311+G(2d,p)
 ****
 37  38 0
 6-311+G(2d,p)
 ****
 1  2  3  4  5  17  18  19  20  21  22  23  24  25 0
 3-21G
 ****
 27  28  29  34  36  39  40  41  42  43  44  45  46 0
 3-21G
 ****


