%nproc=1
%NoSave
%Mem=1900MB
#P OB98/GEN NMR

erre ene a

0 1
  C     -402.039     621.612      54.937
  O     -403.336     621.833      55.449
  H     -401.399     622.477      55.137
  H     -401.611     620.734      55.428
  H     -402.085     621.424      53.859
  P     -404.096     623.147      54.924
  C     -403.679     624.348      57.184
  O     -403.513     624.379      55.773
  C     -404.214     625.686      57.682
  O     -403.375     626.763      57.213
  C     -405.617     626.030      57.191
  O     -406.622     625.342      57.933
  C     -405.648     627.529      57.461
  O     -405.931     627.769      58.851
  C     -404.207     627.953      57.137
  N     -403.597     632.322      54.508
  C     -403.715     632.076      55.834
  N     -403.888     630.895      56.458
  C     -403.916     629.885      55.571
  C     -403.803     629.982      54.195
  C     -403.642     631.272      53.658
  N     -403.535     631.511      52.299
  N     -403.858     628.736      53.611
  C     -404.004     627.895      54.619
  N     -404.048     628.548      55.823
  O     -405.584     622.976      55.500
  O     -404.101     623.334      53.443
  H     -405.701     628.704      59.023
  H     -406.216     623.334      54.852
  H     -403.668     632.951      56.477
  H     -404.073     626.816      54.520
  H     -403.819     628.664      57.877
  H     -406.408     628.057      56.878
  H     -405.721     625.853      56.119
  H     -404.175     625.679      58.778
  H     -402.712     624.153      57.659
  H     -403.229     632.420      51.999
  H     -403.568     630.713      51.675
  H     -404.371     623.541      57.441
  P     -408.031     625.098      57.212
  C     -409.628     625.841      59.114
  O     -409.046     626.159      57.857
  O     -408.519     623.700      57.831
  O     -407.975     625.057      55.722
  H     -409.128     623.258      57.208
  H     -410.278     626.635      59.417
  H     -408.855     625.715      59.843
  H     -410.189     624.934      59.028

 6  7  8  9  10  11  12  13  14  15  25  28  32  33  34  35 0
 6-311+G(2d,p)
 ****
 36  39  40 0
 6-311+G(2d,p)
 ****
 1  2  3  4  5  16  17  18  19  20  21  22  23  24 0
 3-21G
 ****
 26  27  29  30  31  37  38  41  42  43  44  45  46  47  48 0
 3-21G
 ****


