%nproc=1
%NoSave
%Mem=1900MB
#P OB98/GEN NMR

erre ene a

0 1
  C      -95.580      63.726     -71.045
  O      -94.431      63.286     -71.739
  H      -95.519      63.381     -70.010
  H      -96.482      63.311     -71.503
  H      -95.628      64.818     -71.053
  P      -94.383      63.596     -73.315
  C      -95.831      62.719     -75.300
  O      -95.491      62.605     -73.926
  C      -96.801      61.610     -75.692
  O      -96.165      60.316     -75.587
  C      -98.046      61.519     -74.813
  O      -99.020      62.502     -75.114
  C      -98.520      60.123     -75.179
  O      -99.124      60.146     -76.486
  C      -97.182      59.354     -75.194
  N      -96.851      58.755     -73.898
  C      -96.998      57.367     -73.792
  O      -97.390      56.702     -74.748
  N      -96.731      56.766     -72.586
  C      -96.331      57.480     -71.580
  N      -96.084      56.828     -70.412
  C      -96.150      58.940     -71.651
  C      -96.423      59.506     -72.824
  O      -93.011      62.921     -73.785
  O      -94.536      65.027     -73.706
  H      -99.456      59.245     -76.654
  H      -92.954      62.926     -74.772
  H      -95.826      59.495     -70.782
  H      -96.312      60.577     -72.953
  H      -97.193      58.561     -75.952
  H      -99.266      59.726     -74.491
  H      -97.789      61.536     -73.748
  H      -97.069      61.758     -76.745
  H      -96.275      55.835     -70.378
  H      -94.911      62.640     -75.889
  H      -95.916      57.310     -69.539
  H      -96.294      63.691     -75.493
  P      -99.936      63.025     -73.902
  C     -101.482      61.878     -72.149
  O     -100.781      61.767     -73.381
  O     -101.031      63.928     -74.636
  O      -99.202      63.785     -72.841
  H     -101.291      64.686     -74.077
  H     -101.992      60.960     -71.945
  H     -102.194      62.674     -72.214
  H     -100.788      62.083     -71.361

 6  7  8  9  10  11  12  13  14  15  16  26  30  31  32  33  35 0
 6-311+G(2d,p)
 ****
 37  38 0
 6-311+G(2d,p)
 ****
 1  2  3  4  5  17  18  19  20  21  22  23  24  25 0
 3-21G
 ****
 27  28  29  34  36  39  40  41  42  43  44  45  46 0
 3-21G
 ****


