%nproc=1
%NoSave
%Mem=1900MB
#P OB98/GEN NMR

erre ene a

0 1
  C     -280.907    -344.279     899.087
  O     -281.753    -344.819     900.078
  H     -280.231    -345.062     898.741
  H     -280.314    -343.452     899.496
  H     -281.498    -343.921     898.236
  P     -282.772    -343.842     900.837
  C     -285.200    -344.326     901.589
  O     -283.848    -344.777     901.569
  C     -286.165    -345.508     901.785
  O     -286.280    -346.230     900.520
  C     -285.698    -346.519     902.847
  O     -286.875    -347.105     903.429
  C     -284.959    -347.535     901.992
  O     -284.718    -348.727     902.703
  C     -285.887    -347.603     900.778
  N     -285.246    -348.210     899.617
  C     -284.626    -349.445     899.829
  O     -284.626    -349.948     900.953
  N     -283.991    -350.056     898.780
  C     -283.927    -349.457     897.631
  N     -283.267    -350.109     896.637
  C     -284.518    -348.115     897.377
  C     -285.162    -347.557     898.399
  O     -283.354    -342.744     900.009
  O     -281.913    -343.257     902.056
  H     -284.148    -348.560     903.486
  H     -281.653    -342.336     901.871
  H     -284.420    -347.656     896.408
  H     -285.622    -346.588     898.313
  H     -286.792    -348.166     901.012
  H     -283.977    -347.146     901.700
  H     -285.082    -346.066     903.624
  H     -287.158    -345.114     902.017
  H     -282.873    -351.013     896.853
  H     -285.393    -343.844     900.631
  H     -283.131    -349.730     895.700
  H     -285.348    -343.600     902.386
  P     -287.244    -346.959     904.978
  C     -289.436    -346.893     906.350
  O     -288.762    -347.424     905.206
  O     -286.930    -345.612     905.557
  O     -286.391    -348.100     905.712
  H     -286.169    -347.799     906.619
  H     -290.434    -347.278     906.387
  H     -289.468    -345.826     906.281
  H     -288.911    -347.178     907.238

 6  7  8  9  10  11  12  13  14  15  16  26  30  31  32  33  35 0
 6-311+G(2d,p)
 ****
 37  38 0
 6-311+G(2d,p)
 ****
 1  2  3  4  5  17  18  19  20  21  22  23  24  25 0
 3-21G
 ****
 27  28  29  34  36  39  40  41  42  43  44  45  46 0
 3-21G
 ****


