%nproc=1
%NoSave
%Mem=1900MB
#P OB98/GEN NMR

erre ene a

0 1
  C      189.504    -325.423    -299.970
  O      188.194    -324.896    -300.107
  P      187.079    -325.832    -300.783
  C      185.747    -326.516    -298.674
  O      186.668    -326.922    -299.677
  C      184.791    -327.650    -298.321
  O      184.251    -328.212    -299.549
  C      185.439    -328.799    -297.534
  O      184.561    -329.205    -296.476
  C      185.499    -329.932    -298.545
  O      185.515    -331.209    -297.915
  C      184.242    -329.641    -299.362
  N      184.414    -334.151    -301.630
  C      184.260    -333.842    -300.293
  N      184.199    -334.884    -299.437
  N      184.175    -332.621    -299.835
  C      184.218    -331.676    -300.809
  C      184.359    -331.861    -302.165
  C      184.511    -333.215    -302.649
  O      184.741    -333.551    -303.811
  N      184.343    -330.662    -302.831
  C      184.198    -329.756    -301.885
  N      184.165    -330.320    -300.636
  O      187.923    -326.674    -301.851
  O      185.950    -325.110    -301.433
  H      186.315    -331.243    -297.357
  H      187.538    -326.557    -302.741
  H      184.493    -335.108    -301.924
  H      184.141    -328.688    -302.052
  H      183.342    -329.903    -298.788
  H      186.407    -329.830    -299.148
  H      184.223    -335.851    -299.723
  H      186.426    -328.561    -297.124
  H      184.065    -334.680    -298.452
  H      183.943    -327.232    -297.764
  H      185.168    -325.661    -299.042
  H      186.305    -326.203    -297.785
  P      185.233    -329.371    -295.026
  C      184.812    -326.966    -294.116
  O      185.741    -327.911    -294.613
  O      186.580    -330.173    -295.332
  O      184.364    -330.067    -294.032
  H      186.874    -330.661    -294.543
  H      183.836    -327.416    -293.913
  H      184.690    -326.167    -294.849
  H      185.204    -326.541    -293.189
  H      190.135    -324.694    -299.507
  H      189.892    -325.669    -300.936
  H      189.472    -326.304    -299.364

 3  4  5  6  7  8  9  10  11  12  23  26  30  31  33  0
 6-311+G(2d,p)
 ****
 35  36  37  38 0
 6-311+G(2d,p)
 ****
 1  2  13  14  15  16  17  18  19  20  21  22  24  25  27  28  29 0
 3-21G
 ****
 32  34  39  40  41  42  43  44  45  46  47  48  49 0
 3-21G
 ****


