%nproc=1
%NoSave
%Mem=1900MB
#P OB98/GEN NMR

erre ene a

0 1
  C       21.075    -163.053    -274.798
  O       20.315    -161.865    -274.959
  P       20.427    -160.748    -273.811
  C       20.066    -159.037    -275.732
  O       19.764    -159.408    -274.394
  C       19.394    -157.712    -276.095
  O       17.982    -157.959    -276.356
  C       19.478    -156.630    -275.006
  O       19.585    -155.374    -275.679
  C       18.132    -156.773    -274.314
  O       17.774    -155.657    -273.517
  C       17.236    -157.046    -275.517
  N       12.402    -155.992    -274.222
  C       13.426    -155.194    -274.604
  N       14.685    -155.548    -274.941
  C       14.837    -156.882    -274.867
  C       13.894    -157.816    -274.479
  C       12.622    -157.327    -274.145
  N       11.580    -158.140    -273.749
  N       14.424    -159.090    -274.501
  C       15.671    -158.928    -274.895
  N       15.960    -157.614    -275.148
  O       21.989    -160.405    -273.791
  O       19.929    -161.174    -272.465
  H       18.442    -155.520    -272.816
  H       22.307    -160.261    -272.880
  H       13.207    -154.131    -274.642
  H       16.401    -159.718    -274.999
  H       17.043    -156.137    -276.101
  H       18.163    -157.644    -273.649
  H       20.336    -156.755    -274.339
  H       19.837    -157.345    -277.029
  H       19.697    -159.808    -276.414
  H       10.780    -157.678    -273.343
  H       11.810    -159.094    -273.497
  H       21.153    -158.972    -275.855
  P       20.952    -154.539    -275.553
  C       21.119    -154.029    -278.066
  O       20.885    -153.498    -276.775
  O       22.013    -155.610    -276.101
  O       21.258    -153.993    -274.202
  H       21.736    -155.985    -276.955
  H       20.944    -153.239    -278.803
  H       20.434    -154.856    -278.267
  H       22.155    -154.368    -278.147
  H       20.904    -163.702    -275.632
  H       20.779    -163.546    -273.896
  H       22.115    -162.807    -274.745

 3  4  5  6  7  8  9  10  11  12  22  25  29  30  31  32 0
 6-311+G(2d,p)
 ****
 33  36  37 0
 6-311+G(2d,p)
 ****
 1  2  13  14  15  16  17  18  19  20  21  23  24  26 0
 3-21G
 ****
 27  28  34  35  38  39  40  41  42  43  44  45  46  47  48 0
 3-21G
 ****


