%nproc=1
%NoSave
%Mem=1900MB
#P OB98/GEN NMR

erre ene a

0 1
  C      131.248     103.305      79.330
  O      131.553     103.260      80.717
  P      132.987     102.696      81.161
  C      132.048     100.315      81.578
  O      132.980     101.116      80.867
  C      132.631      99.836      82.906
  O      131.702      98.902      83.522
  C      133.980      99.120      82.787
  O      134.726      99.417      83.973
  C      133.592      97.653      82.800
  O      134.678      96.810      83.172
  C      132.433      97.687      83.792
  N      132.239      92.592      83.415
  C      133.276      93.442      83.571
  N      133.249      94.788      83.665
  C      131.987      95.243      83.577
  C      130.836      94.499      83.381
  C      130.992      93.105      83.302
  N      129.936      92.236      83.153
  N      129.732      95.325      83.316
  C      130.207      96.543      83.468
  N      131.561      96.540      83.654
  O      132.918     102.780      82.757
  O      134.158     103.445      80.627
  H      134.398      95.882      83.058
  H      133.535     103.464      83.082
  H      134.258      92.981      83.638
  H      129.621      97.450      83.450
  H      132.779      97.725      84.832
  H      133.255      97.350      81.802
  H      134.556      99.395      81.897
  H      132.714     100.699      83.578
  H      131.801      99.441      80.969
  H      130.115      91.249      83.242
  H      128.993      92.591      83.259
  H      131.131     100.888      81.752
  P      136.248      99.880      83.778
  C      137.055      97.459      84.236
  O      137.078      98.575      83.368
  O      136.735     100.186      85.273
  O      136.415     101.068      82.889
  H      137.443     100.858      85.261
  H      137.116      96.545      83.638
  H      136.142      97.427      84.837
  H      137.920      97.505      84.903
  H      130.264     103.702      79.194
  H      131.293     102.317      78.923
  H      131.957     103.930      78.829

 3  4  5  6  7  8  9  10  11  12  22  25  29  30  31  32 0
 6-311+G(2d,p)
 ****
 33  36  37 0
 6-311+G(2d,p)
 ****
 1  2  13  14  15  16  17  18  19  20  21  23  24  26 0
 3-21G
 ****
 27  28  34  35  38  39  40  41  42  43  44  45  46  47  48 0
 3-21G
 ****


