%nproc=1
%NoSave
%Mem=1900MB
#P OB98/GEN NMR

erre ene a

0 1
  C     -294.576    1155.814    -168.993
  O     -295.092    1155.407    -167.751
  P     -294.111    1154.958    -166.567
  C     -294.337    1157.041    -165.074
  O     -294.657    1155.665    -165.232
  C     -295.394    1157.734    -164.215
  O     -296.567    1158.067    -165.002
  C     -295.940    1156.874    -163.083
  O     -295.048    1156.525    -162.050
  C     -297.184    1157.646    -162.699
  O     -296.873    1158.748    -161.846
  C     -297.677    1158.149    -164.076
  N     -298.840    1157.399    -164.547
  C     -300.041    1158.096    -164.588
  O     -300.159    1159.269    -164.247
  N     -301.134    1157.380    -164.996
  C     -301.146    1156.056    -165.322
  O     -302.175    1155.466    -165.640
  C     -299.851    1155.368    -165.254
  C     -298.770    1156.057    -164.873
  O     -292.656    1155.180    -166.831
  O     -294.500    1153.425    -166.321
  H     -297.662    1159.327    -161.817
  H     -295.430    1153.279    -166.064
  H     -302.020    1157.859    -165.016
  H     -299.825    1154.318    -165.518
  H     -297.801    1155.571    -164.811
  H     -297.953    1159.208    -164.016
  H     -297.903    1157.014    -162.160
  H     -296.272    1155.919    -163.513
  H     -294.978    1158.673    -163.844
  H     -294.309    1157.520    -166.058
  H     -293.338    1157.136    -164.630
  P     -295.281    1155.289    -161.058
  C     -293.161    1153.960    -161.751
  O     -293.854    1154.640    -160.722
  O     -296.397    1154.358    -161.397
  O     -295.628    1156.041    -159.683
  H     -296.242    1155.484    -159.164
  H     -292.234    1153.546    -161.336
  H     -292.897    1154.661    -162.555
  H     -293.761    1153.142    -162.155
  H     -295.383    1156.073    -169.647
  H     -294.010    1155.014    -169.424
  H     -293.942    1156.665    -168.854

 3  4  5  6  7  8  9  10  11  12  13  23  28  29  30  31  32 0
 6-311+G(2d,p)
 ****
 33  34 0
 6-311+G(2d,p)
 ****
 1  2  14  15  16  17  18  19  20  21  22  24  25  26  27 0
 3-21G
 ****
 35  36  37  38  39  40  41  42  43  44  45 0
 3-21G
 ****


