%nproc=1
%NoSave
%Mem=1900MB
#P OB98/GEN NMR

erre ene a

0 1
  C       -4.650     -62.531     246.507
  O       -3.412     -63.055     246.968
  P       -2.028     -62.348     246.564
  C       -1.101     -59.960     246.793
  O       -2.271     -60.766     246.684
  C       -1.339     -58.577     246.192
  O       -1.507     -58.712     244.760
  C       -2.587     -57.884     246.735
  O       -2.335     -56.478     246.829
  C       -3.638     -58.103     245.657
  O       -4.642     -57.074     245.694
  C       -2.774     -58.129     244.395
  N       -6.455     -58.377     240.819
  C       -6.128     -57.412     241.705
  N       -5.152     -57.422     242.639
  C       -4.443     -58.563     242.576
  C       -4.659     -59.636     241.725
  C       -5.724     -59.521     240.810
  N       -6.050     -60.500     239.904
  N       -3.749     -60.649     241.972
  C       -2.987     -60.180     242.938
  N       -3.363     -58.918     243.331
  O       -1.447     -62.791     245.264
  O       -1.047     -62.660     247.786
  H       -4.185     -56.222     245.543
  H       -0.143     -62.837     247.463
  H       -6.723     -56.504     241.656
  H       -2.165     -60.715     243.394
  H       -2.587     -57.118     244.011
  H       -4.140     -59.066     245.824
  H       -2.903     -58.279     247.709
  H       -0.450     -57.963     246.363
  H       -0.290     -60.455     246.249
  H       -6.750     -60.280     239.208
  H       -5.402     -61.272     239.780
  H       -0.813     -59.878     247.847
  P       -3.171     -55.687     247.960
  C       -3.432     -56.063     250.524
  O       -3.004     -56.574     249.283
  O       -4.562     -55.378     247.513
  O       -2.237     -54.407     248.194
  H       -1.305     -54.590     247.951
  H       -3.200     -56.792     251.305
  H       -4.514     -55.895     250.513
  H       -2.916     -55.123     250.751
  H       -5.453     -63.133     246.878
  H       -4.664     -62.538     245.437
  H       -4.765     -61.527     246.859

 3  4  5  6  7  8  9  10  11  12  22  25  29  30  31  32 0
 6-311+G(2d,p)
 ****
 33  36  37 0
 6-311+G(2d,p)
 ****
 1  2  13  14  15  16  17  18  19  20  21  23  24  26 0
 3-21G
 ****
 27  28  34  35  38  39  40  41  42  43  44  45  46  47  48 0
 3-21G
 ****


