%nproc=1
%NoSave
%Mem=1900MB
#P OB98/GEN NMR

erre ene a

0 1
  C      262.247    -371.601     873.641
  O      262.991    -372.603     872.983
  H      262.339    -370.668     873.077
  H      262.640    -371.443     874.645
  H      261.187    -371.870     873.696
  P      262.796    -374.132     873.424
  C      261.403    -375.052     871.458
  O      261.387    -374.608     872.816
  C      260.145    -375.886     871.151
  O      258.965    -375.089     871.488
  C      260.016    -376.298     869.672
  O      259.331    -377.553     869.644
  C      259.134    -375.198     869.119
  O      258.563    -375.569     867.885
  C      258.162    -374.994     870.287
  N      257.456    -373.719     870.202
  C      256.348    -373.681     869.366
  O      255.981    -374.641     868.680
  N      255.691    -372.481     869.288
  C      256.062    -371.325     869.909
  O      255.461    -370.265     869.775
  C      257.269    -371.410     870.744
  C      257.896    -372.587     870.862
  O      262.969    -374.412     874.884
  O      263.856    -374.939     872.534
  H      257.984    -374.861     867.541
  H      264.160    -375.731     873.013
  H      254.880    -372.444     868.687
  H      257.600    -370.518     871.253
  H      258.787    -372.686     871.477
  H      257.416    -375.798     870.312
  H      259.717    -374.284     868.943
  H      260.983    -376.374     869.170
  H      260.134    -376.758     871.812
  H      262.294    -375.663     871.312
  H      261.444    -374.180     870.793
  P      259.944    -378.846     868.897
  C      260.697    -380.006     871.079
  O      261.108    -379.464     869.825
  O      260.348    -378.600     867.477
  O      258.778    -379.952     868.981
  H      258.859    -380.561     868.222
  H      261.551    -380.383     871.602
  H      260.001    -380.801     870.913
  H      260.231    -379.240     871.663

 6  7  8  9  10  11  12  13  14  15  16  26  31  32  33  34  35 0
 6-311+G(2d,p)
 ****
 36  37 0
 6-311+G(2d,p)
 ****
 1  2  3  4  5  17  18  19  20  21  22  23  24  25 0
 3-21G
 ****
 27  28  29  30  38  39  40  41  42  43  44  45 0
 3-21G
 ****


