%nproc=1
%NoSave
%Mem=1900MB
#P OB98/GEN NMR

erre ene a

0 1
  C     -146.647    -260.951     624.493
  O     -147.769    -261.417     623.777
  P     -148.020    -262.989     623.586
  C     -150.416    -263.088     624.525
  O     -149.049    -263.432     624.739
  C     -150.993    -262.447     625.782
  O     -150.347    -261.179     626.068
  C     -152.475    -262.090     625.673
  O     -153.392    -263.154     625.561
  C     -152.637    -261.151     626.855
  O     -152.800    -261.876     628.078
  C     -151.286    -260.395     626.847
  N     -151.419    -259.033     626.327
  C     -152.066    -258.127     627.160
  O     -152.511    -258.416     628.268
  N     -152.225    -256.862     626.656
  C     -151.845    -256.436     625.422
  O     -152.059    -255.304     625.012
  C     -151.183    -257.448     624.575
  C     -151.006    -258.683     625.060
  O     -146.785    -263.823     623.504
  O     -148.934    -263.060     622.271
  H     -152.948    -261.222     628.790
  H     -149.780    -262.589     622.342
  H     -152.704    -256.192     627.238
  H     -150.863    -257.140     623.587
  H     -150.516    -259.446     624.455
  H     -150.877    -260.333     627.866
  H     -153.519    -260.508     626.750
  H     -152.612    -261.484     624.768
  H     -150.803    -263.106     626.631
  H     -150.979    -263.999     624.295
  H     -150.495    -262.418     623.658
  P     -154.709    -263.095     624.651
  C     -155.352    -265.395     623.649
  O     -154.590    -264.216     623.515
  O     -155.174    -261.737     624.239
  O     -155.805    -263.737     625.641
  H     -156.676    -263.339     625.449
  H     -155.116    -266.060     622.810
  H     -156.422    -265.169     623.622
  H     -155.104    -265.910     624.584
  H     -146.654    -259.881     624.511
  H     -145.752    -261.294     624.016
  H     -146.683    -261.325     625.495

 3  4  5  6  7  8  9  10  11  12  13  23  28  29  30  31  32 0
 6-311+G(2d,p)
 ****
 33  34 0
 6-311+G(2d,p)
 ****
 1  2  14  15  16  17  18  19  20  21  22  24  25  26  27 0
 3-21G
 ****
 35  36  37  38  39  40  41  42  43  44  45 0
 3-21G
 ****


