%nproc=1
%NoSave
%Mem=1900MB
#P OB98/GEN NMR

erre ene a

0 1
  C     -352.399     171.907     154.031
  O     -351.297     171.869     154.950
  P     -351.162     170.529     155.833
  C     -352.340     171.195     158.065
  O     -352.423     170.460     156.838
  C     -353.583     170.997     158.927
  O     -353.714     169.605     159.295
  C     -353.590     171.809     160.236
  O     -354.930     172.255     160.503
  C     -353.243     170.761     161.288
  O     -353.684     171.149     162.591
  C     -353.945     169.542     160.700
  N     -354.927     165.728     163.894
  C     -355.731     166.794     163.511
  N     -356.959     166.853     164.068
  N     -355.359     167.707     162.646
  C     -354.115     167.498     162.143
  C     -353.231     166.485     162.445
  C     -353.634     165.508     163.434
  O     -352.946     164.576     163.858
  N     -352.053     166.624     161.727
  C     -352.234     167.708     161.015
  N     -353.457     168.278     161.232
  O     -349.919     170.850     156.791
  O     -350.927     169.294     155.028
  H     -354.651     171.051     162.606
  H     -349.232     170.162     156.687
  H     -355.255     165.070     164.572
  H     -351.509     168.142     160.340
  H     -355.028     169.594     160.868
  H     -352.155     170.632     161.321
  H     -357.332     166.151     164.689
  H     -352.903     172.658     160.253
  H     -357.583     167.595     163.756
  H     -354.466     171.255     158.319
  H     -352.210     172.266     157.839
  H     -351.443     170.865     158.604
  P     -355.213     173.830     160.309
  C     -354.717     174.662     162.731
  O     -354.285     174.562     161.388
  O     -356.695     174.009     160.894
  O     -355.099     174.293     158.899
  H     -357.130     174.761     160.465
  H     -355.597     174.029     162.915
  H     -354.991     175.698     162.939
  H     -353.913     174.354     163.387
  H     -352.390     172.837     153.502
  H     -353.318     171.813     154.572
  H     -352.311     171.099     153.335

 3  4  5  6  7  8  9  10  11  12  23  26  30  31  33  0
 6-311+G(2d,p)
 ****
 35  36  37  38 0
 6-311+G(2d,p)
 ****
 1  2  13  14  15  16  17  18  19  20  21  22  24  25  27  28  29 0
 3-21G
 ****
 32  34  39  40  41  42  43  44  45  46  47  48  49 0
 3-21G
 ****


