%nproc=1
%NoSave
%Mem=1900MB
#P OB98/GEN NMR

erre ene a

0 1
  C        4.210     640.453    -250.725
  O        4.650     639.163    -250.336
  P        5.633     639.065    -249.077
  C        4.158     638.215    -247.101
  O        5.083     637.896    -248.130
  C        2.964     637.260    -247.159
  O        2.319     637.340    -248.445
  C        3.342     635.795    -246.971
  O        3.562     635.487    -245.608
  C        2.137     635.087    -247.574
  O        1.069     634.990    -246.619
  C        1.751     636.038    -248.726
  N        2.166     635.541    -250.033
  C        1.259     634.700    -250.681
  O        0.174     634.373    -250.181
  N        1.648     634.213    -251.892
  C        2.855     634.433    -252.493
  O        3.170     633.927    -253.566
  C        3.787     635.303    -251.756
  C        3.408     635.793    -250.574
  O        5.335     640.397    -248.243
  O        7.081     638.941    -249.427
  H        1.364     634.359    -245.935
  H        6.155     640.726    -247.831
  H        0.999     633.627    -252.389
  H        4.755     635.494    -252.201
  H        4.085     636.423    -250.003
  H        0.658     636.185    -248.741
  H        2.374     634.068    -247.894
  H        4.235     635.562    -247.580
  H        2.239     637.570    -246.388
  H        3.818     639.246    -247.226
  H        4.668     638.140    -246.132
  P        4.470     634.199    -245.289
  C        6.314     635.864    -244.499
  O        5.557     634.708    -244.228
  O        5.268     634.042    -246.668
  O        3.671     633.001    -244.897
  H        5.428     634.902    -247.093
  H        5.731     636.616    -245.039
  H        7.190     635.604    -245.090
  H        6.652     636.301    -243.550
  H        3.564     640.369    -251.574
  H        5.056     641.057    -250.980
  H        3.678     640.908    -249.915

 3  4  5  6  7  8  9  10  11  12  13  23  28  29  30  31  32 0
 6-311+G(2d,p)
 ****
 33  34 0
 6-311+G(2d,p)
 ****
 1  2  14  15  16  17  18  19  20  21  22  24  25  26 0
 3-21G
 ****
 27  35  36  37  38  39  40  41  42  43  44  45 0
 3-21G
 ****


