%nproc=1
%NoSave
%Mem=1900MB
#P OB98/GEN NMR

erre ene a

0 1
  C      322.856     449.891      11.050
  O      322.841     450.193      12.447
  P      323.950     451.175      13.052
  C      322.283     453.108      13.476
  O      323.486     452.694      12.836
  C      321.882     454.502      12.982
  O      321.816     454.554      11.536
  C      320.488     454.916      13.445
  O      320.334     455.183      14.822
  C      320.144     456.033      12.475
  O      320.707     457.279      12.883
  C      320.817     455.531      11.173
  N      319.855     454.981      10.219
  C      319.016     455.901       9.601
  O      319.021     457.100       9.855
  N      318.128     455.382       8.694
  C      317.980     454.062       8.382
  O      317.153     453.650       7.581
  C      318.882     453.137       9.087
  C      319.767     453.630       9.956
  O      325.360     450.879      12.670
  O      323.756     450.984      14.641
  H      320.405     457.957      12.252
  H      324.642     450.963      15.046
  H      317.513     456.036       8.231
  H      318.791     452.080       8.867
  H      320.439     452.962      10.485
  H      321.349     456.355      10.678
  H      319.060     456.177      12.398
  H      319.804     454.085      13.228
  H      322.637     455.219      13.302
  H      322.424     453.116      14.558
  H      321.498     452.369      13.269
  P      319.474     454.256      15.808
  C      321.606     453.195      16.839
  O      320.366     452.982      16.203
  O      318.045     454.008      15.445
  O      319.512     455.116      17.167
  H      318.677     454.977      17.645
  H      322.079     452.228      17.020
  H      321.464     453.700      17.796
  H      322.264     453.791      16.197
  H      322.051     449.225      10.820
  H      323.786     449.427      10.795
  H      322.743     450.795      10.488

 3  4  5  6  7  8  9  10  11  12  13  23  28  29  30  31  32 0
 6-311+G(2d,p)
 ****
 33  34 0
 6-311+G(2d,p)
 ****
 1  2  14  15  16  17  18  19  20  21  22  24  25  26  27 0
 3-21G
 ****
 35  36  37  38  39  40  41  42  43  44  45 0
 3-21G
 ****


