%nproc=1
%NoSave
%Mem=1900MB
#P OB98/GEN NMR

erre ene a

0 1
  C      164.233      12.381    -131.724
  O      165.148      11.331    -131.409
  P      165.229       9.934    -132.175
  C      167.156       8.587    -133.338
  O      166.773       9.569    -132.386
  C      168.634       8.697    -133.762
  O      168.807       9.873    -134.598
  C      169.530       8.894    -132.537
  O      169.956       7.777    -131.781
  C      170.670       9.777    -133.034
  O      171.806       9.022    -133.452
  C      170.048      10.514    -134.226
  N      171.335      15.355    -135.285
  C      171.890      14.180    -135.755
  N      172.957      14.303    -136.577
  N      171.451      12.992    -135.436
  C      170.438      13.009    -134.544
  C      169.816      14.108    -133.985
  C      170.274      15.421    -134.392
  O      169.811      16.491    -134.013
  N      168.838      13.736    -133.098
  C      168.884      12.419    -133.097
  N      169.836      11.930    -133.963
  O      164.332       9.795    -133.359
  O      164.737       8.872    -131.062
  H      172.532       9.646    -133.637
  H      164.274       8.157    -131.544
  H      171.698      16.242    -135.584
  H      168.251      11.775    -132.495
  H      170.703      10.457    -135.108
  H      171.014      10.443    -132.236
  H      173.418      15.180    -136.766
  H      168.970       9.516    -131.828
  H      173.497      13.453    -136.749
  H      168.926       7.844    -134.380
  H      166.500       8.708    -134.203
  H      166.962       7.587    -132.943
  P      169.130       7.053    -130.616
  C      169.522       4.779    -129.499
  O      170.103       6.010    -129.890
  O      168.109       6.097    -131.397
  O      168.394       7.974    -129.696
  H      167.390       5.805    -130.805
  H      170.171       4.294    -128.762
  H      169.427       4.124    -130.372
  H      168.533       4.934    -129.052
  H      164.391      13.204    -131.058
  H      163.230      12.024    -131.618
  H      164.392      12.702    -132.732

 3  4  5  6  7  8  9  10  11  12  23  26  30  31 0
 6-311+G(2d,p)
 ****
 33  35  36  37  38 0
 6-311+G(2d,p)
 ****
 1  2  13  14  15  16  17  18  19  20  21  22  24  25 0
 3-21G
 ****
 27  28  29  32  34  39  40  41  42  43  44  45  46  47  48  49 0
 3-21G
 ****


