%nproc=1
%NoSave
%Mem=1900MB
#P OB98/GEN NMR

erre ene a

0 1
  C     -140.232    -350.414    -888.900
  O     -139.922    -349.377    -889.850
  P     -140.447    -349.558    -891.360
  C     -138.321    -350.832    -892.170
  O     -139.163    -349.699    -892.310
  C     -137.313    -350.910    -893.310
  O     -137.946    -351.197    -894.580
  C     -136.514    -349.647    -893.540
  O     -135.424    -349.550    -892.630
  C     -136.003    -349.839    -894.950
  O     -134.868    -350.710    -894.950
  C     -137.214    -350.525    -895.620
  N     -137.480    -346.892    -899.240
  C     -136.433    -347.597    -898.720
  N     -136.437    -348.527    -897.740
  C     -137.688    -348.730    -897.300
  C     -138.852    -348.100    -897.720
  C     -138.713    -347.143    -898.740
  N     -139.794    -346.450    -899.250
  N     -139.945    -348.577    -897.030
  C     -139.445    -349.496    -896.210
  N     -138.094    -349.606    -896.340
  O     -141.014    -348.099    -891.730
  O     -141.497    -350.614    -891.510
  H     -134.625    -350.875    -895.880
  H     -141.791    -348.197    -892.320
  H     -135.459    -347.346    -899.150
  H     -140.027    -350.086    -895.500
  H     -136.885    -351.303    -896.330
  H     -135.694    -348.895    -895.420
  H     -137.159    -348.761    -893.490
  H     -136.623    -351.754    -893.110
  H     -138.915    -351.741    -892.130
  H     -139.615    -345.771    -900.000
  H     -140.717    -346.644    -898.900
  H     -137.804    -350.766    -891.190
  P     -135.684    -348.802    -891.220
  C     -134.425    -346.622    -891.930
  O     -134.481    -347.757    -891.050
  O     -135.358    -349.946    -890.150
  O     -137.068    -348.252    -891.070
  H     -135.898    -349.811    -889.340
  H     -133.766    -345.878    -891.470
  H     -135.421    -346.189    -892.040
  H     -134.034    -346.930    -892.890
  H     -139.821    -350.158    -887.946
  H     -139.811    -351.340    -889.233
  H     -141.294    -350.515    -888.816

 3  4  5  6  7  8  9  10  11  12  22  25  29  30  31  32 0
 6-311+G(2d,p)
 ****
 33  36  37 0
 6-311+G(2d,p)
 ****
 1  2  13  14  15  16  17  18  19  20  21  23  24  26 0
 3-21G
 ****
 27  28  34  35  38  39  40  41  42  43  44  45  46  47  48 0
 3-21G
 ****


