%nproc=1
%NoSave
%Mem=1900MB
#P OB98/GEN NMR

erre ene a

0 1
  C      338.011      77.075     145.786
  O      338.124      78.203     144.935
  H      337.236      76.417     145.386
  H      337.720      77.391     146.793
  H      338.953      76.529     145.822
  P      339.231      79.293     145.338
  C      338.631      80.326     143.028
  O      338.982      80.560     144.387
  C      338.277      81.647     142.351
  O      339.215      82.673     142.752
  C      338.354      81.602     140.829
  O      337.218      80.989     140.253
  C      338.468      83.088     140.501
  O      337.187      83.725     140.476
  C      339.308      83.622     141.669
  N      342.434      85.967     138.370
  C      341.092      86.025     138.542
  N      340.331      85.381     139.461
  C      341.107      84.623     140.266
  C      342.481      84.462     140.203
  C      343.157      85.175     139.201
  N      344.516      85.094     139.003
  N      342.912      83.567     141.165
  C      341.814      83.210     141.801
  N      340.705      83.819     141.290
  O      340.590      78.651     144.775
  O      339.327      79.598     146.794
  H      336.922      83.837     141.411
  H      341.079      78.226     145.502
  H      340.553      86.688     137.868
  H      341.772      82.491     142.625
  H      338.937      84.591     142.041
  H      338.928      83.226     139.525
  H      339.271      81.092     140.513
  H      337.275      81.952     142.683
  H      337.760      79.657     142.985
  H      339.479      79.848     142.523
  H      344.925      85.583     138.215
  H      345.051      84.428     139.536
  P      337.465      79.859     139.146
  C      334.897      79.454     139.363
  O      336.032      79.481     138.518
  O      337.856      78.552     140.002
  O      338.518      80.190     138.135
  H      338.532      78.039     139.526
  H      334.033      79.187     138.791
  H      334.752      80.421     139.797
  H      335.048      78.733     140.140

 6  7  8  9  10  11  12  13  14  15  25  28  32  33  34  35 0
 6-311+G(2d,p)
 ****
 36  37  40 0
 6-311+G(2d,p)
 ****
 1  2  3  4  5  16  17  18  19  20  21  22  23  24 0
 3-21G
 ****
 26  27  29  30  31  38  39 41  42  43  44  45  46  47  48 0
 3-21G
 ****


