%nproc=1
%NoSave
%Mem=1900MB
#P OB98/GEN NMR

erre ene a

0 1
  C        3.614     129.364    -197.072
  O        3.208     130.717    -196.952
  P        1.975     131.291    -197.807
  C        1.391     130.810    -200.278
  O        2.414     131.107    -199.338
  C        2.004     130.560    -201.655
  O        2.871     129.410    -201.594
  C        0.994     130.263    -202.753
  O        0.345     131.450    -203.183
  C        1.885     129.589    -203.789
  O        2.619     130.573    -204.537
  C        2.850     128.780    -202.899
  N        2.484     127.371    -202.795
  C        3.303     126.463    -203.476
  O        4.282     126.844    -204.113
  N        3.010     125.124    -203.387
  C        1.980     124.727    -202.705
  N        1.779     123.384    -202.597
  C        1.062     125.654    -202.019
  C        1.373     126.948    -202.102
  O        1.551     132.672    -197.446
  O        0.827     130.198    -197.643
  H        3.276     130.089    -205.076
  H        0.247     130.346    -196.852
  H        0.209     125.276    -201.472
  H        0.759     127.692    -201.610
  H        3.872     128.854    -203.289
  H        1.331     128.971    -204.505
  H        0.238     129.550    -202.395
  H        2.612     131.436    -201.920
  H        2.527     122.785    -202.931
  H        0.712     131.665    -200.338
  H        1.196     122.994    -201.867
  H        0.828     129.937    -199.936
  P       -1.041     131.291    -203.976
  C       -1.626     130.158    -206.237
  O       -0.642     130.815    -205.464
  O       -1.536     132.800    -204.160
  O       -2.052     130.442    -203.284
  H       -2.228     133.011    -203.504
  H       -1.286     130.122    -207.274
  H       -2.577     130.703    -206.202
  H       -1.767     129.136    -205.876
  H        4.446     129.182    -196.424
  H        3.900     129.166    -198.084
  H        2.802     128.723    -196.799

 3  4  5  6  7  8  9  10  11  12  13  23  27  28  29  30  32 0
 6-311+G(2d,p)
 ****
 34  35 0
 6-311+G(2d,p)
 ****
 1  2  14  15  16  17  18  19  20  21  22  24  25  26 0
 3-21G
 ****
 31  33  36  37  38  39  40  41  42  43  44  45  46 0
 3-21G
 ****


