%nproc=1
%NoSave
%Mem=1900MB
#P OB98/GEN NMR

erre ene a

0 1
  C       -7.812     236.370     234.164
  O       -7.173     235.446     235.023
  H       -8.363     237.091     234.774
  H       -8.519     235.852     233.510
  H       -7.077     236.913     233.561
  P       -6.169     234.370     234.387
  C       -7.655     232.369     235.068
  O       -7.046     233.086     233.999
  C       -9.023     231.851     234.633
  O       -9.841     232.944     234.151
  C       -8.967     230.843     233.493
  O       -8.554     229.571     233.953
  C      -10.399     230.902     232.985
  O      -11.268     230.101     233.801
  C      -10.726     232.405     233.140
  N      -10.605     233.146     231.883
  C      -11.796     233.498     231.255
  O      -12.906     233.184     231.688
  N      -11.667     234.195     230.084
  C      -10.498     234.472     229.441
  O      -10.438     235.024     228.346
  C       -9.271     234.058     230.140
  C       -9.381     233.425     231.310
  O       -4.942     234.080     235.188
  O       -5.799     234.996     232.959
  H      -12.163     230.186     233.419
  H       -4.897     235.365     232.990
  H      -12.519     234.445     229.606
  H       -8.321     234.273     229.668
  H       -8.487     233.106     231.837
  H      -11.748     232.534     233.519
  H      -10.492     230.536     231.963
  H       -8.297     231.205     232.704
  H       -9.523     231.419     235.511
  H       -7.776     233.048     235.922
  H       -7.000     231.540     235.362
  P       -7.251     228.882     233.328
  C       -8.757     227.130     232.199
  O       -7.704     228.077     232.018
  O       -6.419     228.106     234.291
  O       -6.421     230.111     232.724
  H       -5.550     230.160     233.162
  H       -8.975     226.656     231.265
  H       -9.631     227.633     232.556
  H       -8.454     226.392     232.912

 6  7  8  9  10  11  12  13  14  15  16  26  31  32  33  34  35 0
 6-311+G(2d,p)
 ****
 36  37 0
 6-311+G(2d,p)
 ****
 1  2  3  4  5  17  18  19  20  21  22  23  24  25 0
 3-21G
 ****
 27  28  29  30  38  39  40  41  42  43  44  45 0
 3-21G
 ****


