%nproc=1
%NoSave
%Mem=1900MB
#P OB98/GEN NMR

erre ene a

0 1
  C     -240.180     266.685    -110.987
  O     -239.000     267.459    -110.927
  H     -239.912     265.650    -111.218
  H     -240.838     267.063    -111.780
  H     -240.704     266.711    -110.027
  P     -239.172     269.013    -110.557
  C     -239.295     269.565    -113.099
  O     -239.901     269.698    -111.816
  C     -239.389     270.893    -113.850
  O     -240.769     271.316    -113.909
  C     -238.633     272.043    -113.187
  O     -237.244     271.991    -113.453
  C     -239.327     273.251    -113.808
  O     -238.788     273.561    -115.100
  C     -240.778     272.761    -113.957
  N     -243.380     276.877    -112.439
  C     -242.664     276.621    -113.557
  N     -242.011     275.485    -113.892
  C     -242.166     274.552    -112.936
  C     -242.857     274.673    -111.742
  C     -243.492     275.897    -111.500
  N     -244.185     276.172    -110.351
  N     -242.746     273.509    -111.003
  C     -242.004     272.704    -111.734
  N     -241.637     273.287    -112.915
  O     -237.669     269.568    -110.639
  O     -239.800     269.285    -109.230
  H     -239.179     274.415    -115.368
  H     -237.269     269.557    -109.748
  H     -242.603     277.436    -114.276
  H     -241.708     271.694    -111.457
  H     -241.216     273.049    -114.919
  H     -239.217     274.140    -113.185
  H     -238.822     272.047    -112.104
  H     -239.035     270.741    -114.881
  H     -239.814     268.791    -113.670
  H     -238.245     269.269    -112.968
  H     -244.600     277.087    -110.234
  H     -244.185     275.493    -109.595
  P     -236.231     272.595    -112.373
  C     -235.745     274.815    -113.642
  O     -236.299     274.198    -112.495
  O     -234.787     272.228    -112.970
  O     -236.413     272.071    -110.986
  H     -234.426     271.443    -112.510
  H     -235.870     275.875    -113.572
  H     -236.244     274.454    -114.517
  H     -234.703     274.582    -113.704

 6  7  8  9  10  11  12  13  14  15  25  28  32  33  34  35 0
 6-311+G(2d,p)
 ****
 36  37  40 0
 6-311+G(2d,p)
 ****
 1  2  3  4  5  16  17  18  19  20  21  22  23  24 0
 3-21G
 ****
 26  27  29  30  31  38  39 41  42  43  44  45  46  47  48 0
 3-21G
 ****


