%nproc=1
%NoSave
%Mem=1900MB
#P OB98/GEN NMR

erre ene a

0 1
  C     -235.105     371.984    -143.863
  O     -235.641     371.688    -142.586
  H     -234.309     372.725    -143.745
  H     -235.882     372.402    -144.510
  H     -234.685     371.082    -144.314
  P     -236.814     370.596    -142.542
  C     -239.387     370.892    -142.520
  O     -238.134     371.417    -142.940
  C     -240.446     371.993    -142.499
  O     -240.196     372.917    -141.421
  C     -240.498     372.841    -143.764
  O     -241.229     372.180    -144.783
  C     -241.228     374.070    -143.249
  O     -242.646     373.806    -143.193
  C     -240.668     374.230    -141.827
  N     -239.285     378.825    -140.007
  C     -240.493     378.234    -140.127
  N     -240.790     377.030    -140.657
  C     -239.681     376.411    -141.101
  C     -238.380     376.895    -141.045
  C     -238.196     378.155    -140.459
  N     -236.961     378.752    -140.328
  N     -237.498     375.985    -141.593
  C     -238.249     374.952    -141.925
  N     -239.579     375.177    -141.679
  O     -236.892     369.782    -141.294
  O     -236.510     369.766    -143.877
  H     -242.964     373.702    -144.108
  H     -236.225     370.362    -144.592
  H     -241.333     378.802    -139.743
  H     -237.876     374.019    -142.330
  H     -241.446     374.532    -141.113
  H     -241.096     374.936    -143.904
  H     -239.495     373.131    -144.088
  H     -241.418     371.520    -142.307
  H     -239.298     370.442    -141.528
  H     -236.939     379.724    -140.059
  H     -236.173     378.310    -140.775
  H     -239.671     370.111    -143.232
  P     -240.887     372.435    -146.332
  C     -241.246     374.339    -148.023
  O     -241.513     373.865    -146.705
  O     -241.269     371.328    -147.252
  O     -239.313     372.712    -146.352
  H     -238.908     372.305    -147.146
  H     -241.709     375.294    -148.159
  H     -241.640     373.647    -148.738
  H     -240.189     374.432    -148.161

 6  7  8  9  10  11  12  13  14  15  25  28  32  33  34  35 0
 6-311+G(2d,p)
 ****
 36  39  40 0
 6-311+G(2d,p)
 ****
 1  2  3  4  5  16  17  18  19  20  21  22  23  24 0
 3-21G
 ****
 26  27  29  30  31  37  38  41  42  43  44  45  46  47 0
 3-21G
 ****
 48 0
 3-21G
 ****


