%nproc=1
%NoSave
%Mem=1900MB
#P OB98/GEN NMR

erre ene a

0 1
  C        7.533       7.345     -14.496
  O        8.819       7.357     -15.078
  H        7.154       8.370     -14.469
  H        7.584       6.966     -13.473
  H        6.845       6.734     -15.085
  P        9.537       5.958     -15.391
  C       10.350       3.938     -14.014
  O        9.860       5.273     -13.979
  C       11.034       3.602     -12.691
  O       12.061       4.577     -12.404
  C       10.098       3.632     -11.490
  O        9.266       2.490     -11.448
  C       11.098       3.745     -10.352
  O       11.640       2.464     -10.011
  C       12.186       4.652     -10.966
  N       12.077       6.034     -10.499
  C       12.117       6.221      -9.121
  O       12.246       5.303      -8.314
  N       11.939       7.508      -8.691
  C       11.595       8.569      -9.478
  O       11.204       9.641      -9.027
  C       11.629       8.325     -10.927
  C       11.853       7.085     -11.365
  O       10.683       6.019     -16.344
  O        8.349       5.048     -15.964
  H        8.421       5.002     -16.936
  H       12.325       2.636      -9.332
  H       11.925       7.645      -7.689
  H       11.432       9.160     -11.588
  H       11.849       6.873     -12.429
  H       13.186       4.276     -10.715
  H       10.639       4.162      -9.454
  H        9.489       4.543     -11.518
  H       11.513       2.620     -12.789
  H       11.075       3.851     -14.831
  H        9.515       3.257     -14.204
  P        7.709       2.636     -11.104
  C        6.279       3.465      -9.138
  O        7.572       3.047      -9.561
  O        6.854       1.488     -11.524
  O        7.269       3.975     -11.865
  H        6.464       3.791     -12.387
  H        6.307       3.713      -8.097
  H        5.578       2.672      -9.297
  H        5.980       4.324      -9.701

 6  7  8  9  10  11  12  13  14  15  16  27  31  32  33  34  35 0
 6-311+G(2d,p)
 ****
 36  37 0
 6-311+G(2d,p)
 ****
 1  2  3  4  5  17  18  19  20  21  22  23  24  25 0
 3-21G
 ****
 26  28  29  30  38  39  40  41  42  43  44  45 0
 3-21G
 ****


