%nproc=1
%NoSave
%Mem=1900MB
#P OB98/GEN NMR

erre ene a

0 1
  C     -207.372     142.873    -650.458
  O     -208.312     142.792    -651.527
  P     -209.876     142.821    -651.148
  C     -210.560     140.314    -651.267
  O     -210.173     141.410    -650.436
  C     -211.940     139.795    -650.855
  O     -211.885     139.228    -649.536
  C     -213.025     140.867    -650.798
  O     -213.568     141.148    -652.090
  C     -214.060     140.175    -649.924
  O     -214.814     139.228    -650.710
  C     -213.176     139.446    -648.905
  N     -213.920     139.355    -643.844
  C     -214.280     138.495    -644.824
  N     -214.054     138.590    -646.148
  C     -213.417     139.743    -646.434
  C     -213.025     140.734    -645.549
  C     -213.290     140.508    -644.194
  N     -212.905     141.381    -643.191
  N     -212.405     141.769    -646.219
  C     -212.414     141.405    -647.489
  N     -213.002     140.184    -647.667
  O     -210.598     142.678    -652.575
  O     -210.323     144.041    -650.410
  H     -215.268     139.745    -651.410
  H     -211.500     143.044    -652.533
  H     -214.807     137.607    -644.488
  H     -212.001     141.985    -648.296
  H     -213.579     138.454    -648.650
  H     -214.783     140.874    -649.496
  H     -212.658     141.780    -650.302
  H     -212.214     138.993    -651.556
  H     -209.828     139.511    -651.157
  H     -212.972     141.054    -642.236
  H     -212.268     142.119    -643.438
  H     -210.566     140.638    -652.315
  P     -214.820     142.158    -652.135
  C     -216.630     140.303    -652.433
  O     -216.067     141.305    -651.605
  O     -215.092     142.313    -653.704
  O     -214.574     143.467    -651.464
  H     -215.533     143.161    -653.895
  H     -217.235     139.640    -651.823
  H     -215.841     139.718    -652.929
  H     -217.266     140.773    -653.190
  H     -206.378     142.843    -650.854
  H     -207.516     142.047    -649.793
  H     -207.516     143.790    -649.925

 3  4  5  6  7  8  9  10  11  12  22  25  29  30  31  32 0
 6-311+G(2d,p)
 ****
 33  36  37 0
 6-311+G(2d,p)
 ****
 1  2  13  14  15  16  17  18  19  20  21  23  24  26 0
 3-21G
 ****
 27  28  34  35  38  39  40  41  42  43  44  45  46  47  48 0
 3-21G
 ****


