%nproc=1
%NoSave
%Mem=1900MB
#P OB98/GEN NMR

erre ene a

0 1
  C      106.653    -691.978     167.708
  O      106.792    -693.012     166.757
  P      105.523    -693.532     165.925
  C      106.562    -692.430     163.834
  O      105.409    -692.538     164.667
  C      106.199    -692.699     162.370
  O      105.269    -691.705     161.892
  C      107.387    -692.648     161.420
  O      108.155    -693.834     161.513
  C      106.685    -692.454     160.080
  O      106.215    -693.699     159.552
  C      105.499    -691.545     160.470
  N      105.725    -690.148     160.122
  C      105.426    -689.799     158.798
  O      105.032    -690.648     158.003
  N      105.630    -688.500     158.398
  C      106.111    -687.634     159.243
  N      106.300    -686.370     158.782
  C      106.467    -687.974     160.634
  C      106.251    -689.237     161.000
  O      104.272    -693.713     166.713
  O      106.059    -694.886     165.260
  H      107.014    -694.195     159.272
  H      106.118    -695.617     165.922
  H      106.876    -687.222     161.294
  H      106.486    -689.568     162.001
  H      104.579    -691.878     159.974
  H      107.348    -692.010     159.330
  H      108.006    -691.769     161.643
  H      105.711    -693.679     162.316
  H      106.075    -686.184     157.813
  H      107.297    -693.174     164.166
  H      106.704    -685.635     159.342
  H      107.001    -691.435     163.948
  P      109.687    -693.830     161.052
  C      110.830    -694.410     163.274
  O      110.579    -693.404     162.311
  O      109.975    -693.094     159.792
  O      110.026    -695.390     160.884
  H      110.532    -695.516     160.057
  H      111.688    -694.106     163.881
  H      111.050    -695.370     162.797
  H      109.960    -694.518     163.927
  H      107.604    -691.774     168.154
  H      105.961    -692.281     168.466
  H      106.289    -691.096     167.225

 3  4  5  6  7  8  9  10  11  12  13  23  27  28  29  30  32 0
 6-311+G(2d,p)
 ****
 34  35 0
 6-311+G(2d,p)
 ****
 1  2  14  15  16  17  18  19  20  21  22  24  25  26 0
 3-21G
 ****
 31  33  36  37  38  39  40  41  42  43  44  45  46 0
 3-21G
 ****


