%nproc=1
%NoSave
%Mem=1900MB
#P OB98/GEN NMR

erre ene a

0 1
  C      362.955    -315.553     154.542
  O      362.556    -316.911     154.391
  P      361.029    -317.386     154.582
  C      360.710    -318.266     152.182
  O      360.725    -318.594     153.567
  C      361.306    -319.389     151.321
  O      362.746    -319.395     151.422
  C      360.854    -320.793     151.717
  O      359.557    -321.056     151.224
  C      361.964    -321.645     151.113
  O      361.735    -321.843     149.704
  C      363.196    -320.757     151.332
  N      365.500    -324.582     153.837
  C      364.856    -324.533     152.653
  N      364.273    -323.483     152.047
  C      364.404    -322.373     152.804
  C      365.028    -322.265     154.035
  C      365.590    -323.431     154.561
  N      366.229    -323.490     155.780
  N      364.945    -320.971     154.514
  C      364.297    -320.307     153.574
  N      363.961    -321.111     152.516
  O      360.032    -316.267     154.519
  O      360.995    -318.092     156.022
  H      360.860    -322.257     149.608
  H      360.102    -318.004     156.407
  H      364.813    -325.474     152.100
  H      364.068    -319.254     153.609
  H      363.894    -320.803     150.476
  H      362.043    -322.634     151.573
  H      360.865    -320.901     152.814
  H      361.051    -319.183     150.273
  H      361.285    -317.350     152.036
  H      366.577    -324.372     156.107
  H      366.262    -322.649     156.352
  H      359.672    -318.082     151.881
  P      358.744    -322.341     151.736
  C      356.725    -320.876     152.352
  O      357.184    -321.989     151.601
  O      359.168    -322.887     153.059
  O      358.960    -323.419     150.565
  H      358.934    -324.315     150.954
  H      356.577    -321.178     153.392
  H      355.776    -320.546     151.931
  H      357.446    -320.056     152.303
  H      364.008    -315.469     154.371
  H      362.728    -315.223     155.534
  H      362.429    -314.946     153.835

 3  4  5  6  7  8  9  10  11  12  22  25  29  30  31  32 0
 6-311+G(2d,p)
 ****
 33  36  37 0
 6-311+G(2d,p)
 ****
 1  2  13  14  15  16  17  18  19  20  21  23  24  26 0
 3-21G
 ****
 27  28  34  35  38  39  40  41  42  43  44  45  46  47  48 0
 3-21G
 ****


