%nproc=1
%NoSave
%Mem=1900MB
#P OB98/GEN NMR

erre ene a

0 1
  C        7.807    -215.613    -184.407
  O        6.982    -215.044    -183.413
  H        7.610    -216.688    -184.450
  H        8.860    -215.462    -184.158
  H        7.591    -215.180    -185.387
  P        6.950    -213.450    -183.256
  C        4.388    -213.209    -183.389
  O        5.636    -212.933    -184.014
  C        3.258    -213.084    -184.409
  O        3.503    -213.966    -185.527
  C        1.893    -213.484    -183.867
  O        1.354    -212.486    -183.021
  C        1.129    -213.716    -185.159
  O        0.650    -212.482    -185.706
  C        2.214    -214.332    -186.070
  N        2.080    -215.785    -186.178
  C        0.948    -216.249    -186.840
  O        0.095    -215.511    -187.327
  N        0.794    -217.609    -186.870
  C        1.567    -218.512    -186.198
  O        1.252    -219.688    -186.049
  C        2.780    -217.970    -185.569
  C        2.972    -216.650    -185.576
  O        8.211    -212.740    -183.616
  O        6.579    -213.232    -181.713
  H        7.388    -213.001    -181.218
  H        1.438    -211.907    -185.799
  H       -0.047    -217.953    -187.313
  H        3.458    -218.665    -185.087
  H        3.843    -216.222    -185.090
  H        2.159    -213.900    -187.077
  H        0.268    -214.368    -185.004
  H        1.973    -214.435    -183.327
  H        3.243    -212.053    -184.784
  H        4.231    -212.486    -182.582
  H        4.417    -214.217    -182.964
  P        1.020    -212.818    -181.491
  C        2.195    -210.925    -180.212
  O        2.236    -212.298    -180.586
  O        0.597    -214.224    -181.222
  O       -0.156    -211.794    -181.122
  H       -0.887    -212.292    -180.706
  H        3.051    -210.693    -179.614
  H        1.305    -210.735    -179.650
  H        2.198    -210.316    -181.091

 6  7  8  9  10  11  12  13  14  15  16  27  31  32  33  34  35 0
 6-311+G(2d,p)
 ****
 36  37 0
 6-311+G(2d,p)
 ****
 1  2  3  4  5  17  18  19  20  21  22  23  24  25 0
 3-21G
 ****
 26  28  29  30  38  39  40  41  42  43  44  45 0
 3-21G
 ****


