%nproc=1
%NoSave
%Mem=1900MB
#P OB98/GEN NMR

erre ene a

0 1
  C     -356.226    -186.028    -722.085
  O     -356.476    -185.099    -723.125
  H     -355.323    -185.720    -721.553
  H     -356.069    -187.023    -722.505
  H     -357.064    -186.043    -721.386
  P     -357.782    -185.360    -724.030
  C     -356.520    -184.048    -725.892
  O     -357.325    -185.176    -725.553
  C     -355.583    -184.412    -727.041
  O     -354.548    -185.314    -726.560
  C     -356.263    -185.145    -728.189
  O     -356.988    -184.273    -729.034
  C     -355.074    -185.800    -728.866
  O     -354.415    -184.901    -729.758
  C     -354.150    -186.141    -727.682
  N     -352.174    -190.772    -728.521
  C     -351.823    -189.549    -728.972
  N     -352.402    -188.365    -728.688
  C     -353.412    -188.516    -727.822
  C     -353.881    -189.704    -727.274
  C     -353.212    -190.884    -727.645
  N     -353.572    -192.127    -727.209
  N     -354.967    -189.464    -726.461
  C     -355.149    -188.165    -726.500
  N     -354.231    -187.546    -727.307
  O     -358.679    -184.061    -723.740
  O     -358.515    -186.625    -723.727
  H     -355.112    -184.520    -730.331
  H     -359.369    -184.283    -723.088
  H     -350.995    -189.520    -729.661
  H     -355.930    -187.611    -725.974
  H     -353.102    -185.915    -727.895
  H     -355.387    -186.678    -729.441
  H     -356.924    -185.936    -727.785
  H     -355.090    -183.495    -727.405
  H     -355.926    -183.752    -725.022
  H     -357.174    -183.216    -726.171
  H     -353.091    -192.933    -727.579
  H     -354.414    -192.223    -726.659
  P     -358.463    -184.726    -729.480
  C     -358.171    -183.841    -731.919
  O     -358.430    -184.946    -731.073
  O     -359.347    -183.391    -729.300
  O     -359.020    -185.870    -728.707
  H     -360.244    -183.628    -729.011
  H     -358.185    -184.162    -732.940
  H     -357.210    -183.432    -731.687
  H     -358.922    -183.094    -731.770

 6  7  8  9  10  11  12  13  14  15  25  28  32  33  34  35 0
 6-311+G(2d,p)
 ****
 36  37  40 0
 6-311+G(2d,p)
 ****
 1  2  3  4  5  16  17  18  19  20  21  22  23  24 0
 3-21G
 ****
 26  27  29  30  31  38  39 41  42  43  44  45  46  47  48 0
 3-21G
 ****


