%nproc=1
%NoSave
%Mem=1900MB
#P OB98/GEN NMR

erre ene a

0 1
  C      191.846    -220.504    -101.442
  O      191.016    -221.629    -101.231
  H      191.548    -219.710    -100.750
  H      191.731    -220.139    -102.466
  H      192.893    -220.761    -101.254
  P      191.358    -222.954    -102.067
  C      190.956    -223.669    -104.540
  O      191.062    -222.604    -103.607
  C      190.071    -223.245    -105.716
  O      188.684    -223.261    -105.280
  C      190.377    -221.829    -106.223
  O      190.221    -221.802    -107.646
  C      189.297    -220.985    -105.569
  O      189.024    -219.770    -106.258
  C      188.120    -221.963    -105.572
  N      187.092    -221.613    -104.591
  C      185.951    -220.970    -105.059
  O      185.711    -220.744    -106.245
  N      185.056    -220.575    -104.095
  C      185.201    -220.735    -102.747
  O      184.374    -220.338    -101.936
  C      186.431    -221.414    -102.312
  C      187.308    -221.812    -103.239
  O      190.166    -223.951    -101.685
  O      192.705    -223.546    -101.818
  H      190.405    -224.487    -100.903
  H      189.191    -219.921    -107.212
  H      184.221    -220.110    -104.417
  H      186.584    -221.551    -101.252
  H      188.232    -222.303    -102.952
  H      187.672    -222.021    -106.572
  H      189.588    -220.731    -104.541
  H      191.378    -221.487    -105.954
  H      190.169    -223.984    -106.520
  H      190.506    -224.536    -104.046
  H      191.957    -223.939    -104.895
  P      191.551    -221.626    -108.532
  C      192.915    -219.550    -109.350
  O      191.726    -220.045    -108.756
  O      191.064    -222.179    -109.949
  O      192.735    -222.329    -107.949
  H      190.141    -221.952    -110.157
  H      192.861    -218.484    -109.422
  H      193.025    -219.968    -110.329
  H      193.756    -219.825    -108.748

 6  7  8  9  10  11  12  13  14  15  16  27  31  32  33  34  35 0
 6-311+G(2d,p)
 ****
 36  37 0
 6-311+G(2d,p)
 ****
 1  2  3  4  5  17  18  19  20  21  22  23  24  25 0
 3-21G
 ****
 26  28  29  30  38  39  40  41  42  43  44  45 0
 3-21G
 ****


