%nproc=1
%NoSave
%Mem=1900MB
#P OB98/GEN NMR

erre ene a

0 1
  C     -115.780    -417.026     293.752
  O     -116.260    -418.199     294.417
  P     -116.478    -419.507     293.511
  C     -116.582    -420.994     295.630
  O     -117.197    -420.633     294.402
  C     -117.583    -421.638     296.601
  O     -118.305    -420.621     297.352
  C     -118.630    -422.516     295.907
  O     -118.936    -423.597     296.796
  C     -119.838    -421.602     295.812
  O     -121.040    -422.351     295.643
  C     -119.718    -420.837     297.145
  N     -120.464    -419.581     297.152
  C     -121.614    -419.525     297.941
  O     -122.007    -420.534     298.540
  N     -122.324    -418.353     298.008
  C     -121.944    -417.329     297.298
  N     -122.692    -416.196     297.401
  C     -120.769    -417.361     296.400
  C     -120.083    -418.501     296.381
  O     -114.993    -420.071     293.306
  O     -117.140    -419.218     292.197
  H     -121.800    -421.738     295.767
  H     -114.828    -420.246     292.360
  H     -120.501    -416.493     295.816
  H     -119.204    -418.620     295.763
  H     -120.090    -421.452     297.973
  H     -119.729    -420.915     294.963
  H     -118.297    -422.913     294.942
  H     -117.018    -422.241     297.324
  H     -123.487    -416.215     298.030
  H     -116.148    -420.108     296.101
  H     -122.487    -415.349     296.892
  H     -115.742    -421.671     295.427
  P     -118.266    -425.022     296.516
  C     -117.322    -425.072     298.908
  O     -118.158    -425.716     297.958
  O     -116.736    -424.611     296.241
  O     -118.809    -425.862     295.401
  H     -116.223    -425.403     295.990
  H     -117.441    -425.572     299.870
  H     -117.613    -424.018     299.014
  H     -116.279    -425.144     298.596
  H     -115.678    -416.231     294.461
  H     -116.475    -416.738     292.991
  H     -114.829    -417.232     293.308

 3  4  5  6  7  8  9  10  11  12  13  21  23  27  28  29  30  32 0
 6-311+G(2d,p)
 ****
 34  35 0
 6-311+G(2d,p)
 ****
 1  2  14  15  16  17  18  19  20  22  24  25  26 0
 3-21G
 ****
 31  33  36  37  38  39  40  41  42  43  44  45  46 0
 3-21G
 ****


