%nproc=1
%NoSave
%Mem=1900MB
#P OB98/GEN NMR

erre ene a

0 1
  C      600.758     280.709     201.770
  O      600.606     280.217     200.455
  P      601.916     280.231     199.517
  C      602.332     279.194     197.158
  O      601.698     279.080     198.422
  C      601.639     278.272     196.147
  O      601.895     276.887     196.477
  C      600.118     278.424     196.103
  O      599.751     279.533     195.302
  C      599.691     277.078     195.528
  O      599.834     277.071     194.095
  C      600.697     276.115     196.187
  N      598.017     272.262     198.074
  C      598.172     272.679     196.765
  N      597.561     271.934     195.809
  N      598.867     273.731     196.411
  C      599.413     274.383     197.468
  C      599.310     274.074     198.808
  C      598.593     272.887     199.170
  O      598.501     272.417     200.304
  N      599.983     274.991     199.583
  C      600.504     275.833     198.714
  N      600.208     275.500     197.412
  O      603.057     279.647     200.480
  O      602.269     281.568     198.943
  H      599.185     277.697     193.707
  H      603.587     280.369     200.864
  H      597.484     271.424     198.279
  H      601.120     276.685     198.964
  H      600.983     275.301     195.512
  H      598.643     276.849     195.740
  H      596.991     271.119     196.007
  H      599.720     278.530     197.123
  H      597.664     272.228     194.852
  H      602.070     278.469     195.162
  H      603.384     278.895     197.252
  H      602.286     280.238     196.818
  P      598.206     279.985     195.328
  C      596.932     282.248     195.308
  O      598.180     281.594     195.302
  O      597.739     279.620     196.815
  O      597.358     279.321     194.303
  H      596.811     279.312     196.794
  H      597.046     283.214     195.807
  H      596.169     281.664     195.833
  H      596.605     282.415     194.280
  H      599.822     280.646     202.285
  H      601.077     281.730     201.734
  H      601.490     280.124     202.287

 3  4  5  6  7  8  9  10  11  12  23  26  30  31 0
 6-311+G(2d,p)
 ****
 33  35  36  37  38 0
 6-311+G(2d,p)
 ****
 1  2  13  14  15  16  17  18  19  20  21  22  24  25 0
 3-21G
 ****
 27  28  29  32  34  39  40  41  42  43  44  45  46  47  48  49 0
 3-21G
 ****


