%nproc=1
%NoSave
%Mem=1900MB
#P OB98/GEN NMR

erre ene a

0 1
  C     -144.398     137.540     402.450
  O     -144.716     137.201     401.097
  P     -145.121     138.429     400.136
  C     -142.819     139.154     399.181
  O     -143.876     139.444     400.079
  C     -142.059     140.425     398.803
  O     -141.401     141.024     399.938
  C     -140.977     140.201     397.759
  O     -141.551     140.128     396.467
  C     -140.094     141.426     397.960
  O     -140.604     142.563     397.231
  C     -140.187     141.673     399.470
  N     -136.016     143.023     402.028
  C     -136.861     143.784     401.232
  N     -136.557     145.094     401.130
  N     -137.898     143.305     400.609
  C     -138.074     141.973     400.806
  C     -137.323     141.121     401.583
  C     -136.179     141.667     402.273
  O     -135.419     141.041     402.999
  N     -137.846     139.848     401.586
  C     -138.831     139.912     400.704
  N     -139.056     141.190     400.252
  O     -146.229     139.219     400.994
  O     -145.660     137.994     398.816
  H     -139.939     143.282     397.264
  H     -147.106     139.103     400.583
  H     -135.228     143.446     402.480
  H     -139.436     139.072     400.387
  H     -140.282     142.738     399.706
  H     -139.077     141.258     397.584
  H     -135.780     145.539     401.588
  H     -140.415     139.290     397.995
  H     -137.175     145.680     400.565
  H     -142.800     141.142     398.428
  H     -143.218     138.680     398.273
  H     -142.151     138.416     399.650
  P     -142.034     138.696     395.936
  C     -144.554     139.206     395.530
  O     -143.574     138.540     396.316
  O     -141.279     137.670     396.919
  O     -141.695     138.417     394.507
  H     -140.909     136.932     396.399
  H     -145.482     138.628     395.550
  H     -144.222     139.312     394.492
  H     -144.737     140.188     395.960
  H     -144.146     136.652     402.991
  H     -145.244     138.009     402.908
  H     -143.566     138.213     402.463

 3  4  5  6  7  8  9  10  11  12  23  26  30  31 0
 6-311+G(2d,p)
 ****
 33  35  36  37  38 0
 6-311+G(2d,p)
 ****
 1  2  13  14  15  16  17  18  19  20  21  22  24  25 0
 3-21G
 ****
 27  28  29  32  34  39  40  41  42  43  44  45  46  47  48  49 0
 3-21G
 ****


