%nproc=1
%NoSave
%Mem=1900MB
#P OB98/GEN NMR

erre ene a

0 1
  C      -44.488      96.629     -84.509
  O      -43.608      96.001     -83.571
  P      -42.793      96.949     -82.567
  C      -42.232      95.496     -80.491
  O      -41.775      96.046     -81.717
  C      -43.067      94.228     -80.721
  O      -42.307      93.238     -81.467
  C      -43.521      93.551     -79.424
  O      -44.771      92.898     -79.671
  C      -42.454      92.495     -79.212
  O      -42.891      91.474     -78.316
  C      -42.219      92.050     -80.654
  N      -39.935      87.852     -82.267
  C      -41.279      88.164     -82.194
  N      -42.140      87.229     -82.651
  N      -41.738      89.291     -81.716
  C      -40.757      90.143     -81.330
  C      -39.395      89.949     -81.345
  C      -38.904      88.687     -81.853
  O      -37.726      88.352     -81.928
  N      -38.729      91.039     -80.846
  C      -39.688      91.887     -80.524
  N      -40.931      91.404     -80.832
  O      -43.904      97.368     -81.492
  O      -42.195      98.150     -83.221
  H      -42.102      90.947     -78.066
  H      -44.148      98.303     -81.616
  H      -39.637      86.965     -82.635
  H      -39.539      92.854     -80.069
  H      -42.982      91.340     -81.000
  H      -41.551      92.956     -78.792
  H      -41.850      86.363     -83.079
  H      -43.627      94.224     -78.567
  H      -43.128      87.449     -82.648
  H      -43.942      94.492     -81.326
  H      -42.833      96.233     -79.950
  H      -41.368      95.293     -79.849
  P      -45.920      93.089     -78.573
  C      -47.822      93.001     -80.337
  O      -47.240      92.421     -79.186
  O      -46.235      94.657     -78.626
  O      -45.551      92.638     -77.197
  H      -46.605      94.959     -77.776
  H      -47.573      92.390     -81.209
  H      -47.476      94.026     -80.501
  H      -48.908      93.014     -80.212
  H      -44.962      95.881     -85.110
  H      -43.927      97.289     -85.137
  H      -45.233      97.187     -83.981

 3  4  5  6  7  8  9  10  11  12  23  26  30  31 0
 6-311+G(2d,p)
 ****
 33  35  36  37  38 0
 6-311+G(2d,p)
 ****
 1  2  13  14  15  16  17  18  19  20  21  22  24  25 0
 3-21G
 ****
 27  28  29  32  34  39  40  41  42  43  44  45  46  47  48  49 0
 3-21G
 ****


