%nproc=1
%NoSave
%Mem=1900MB
#P OB98/GEN NMR

erre ene a

0 1
  C     -250.524     -43.292      86.932
  O     -251.011     -41.994      86.598
  P     -251.131     -40.900      87.764
  C     -248.892     -39.786      87.127
  O     -249.656     -40.407      88.157
  C     -248.546     -38.334      87.509
  O     -249.776     -37.575      87.624
  C     -247.832     -38.175      88.856
  O     -246.408     -38.240      88.878
  C     -248.209     -36.742      89.222
  O     -247.321     -35.818      88.564
  C     -249.620     -36.584      88.662
  N     -253.068     -34.139      91.540
  C     -252.183     -33.692      90.620
  N     -251.299     -34.412      89.898
  C     -251.395     -35.720      90.190
  C     -252.251     -36.316      91.102
  C     -253.120     -35.462      91.802
  N     -254.013     -35.908      92.747
  N     -252.055     -37.679      91.137
  C     -251.079     -37.900      90.274
  N     -250.659     -36.750      89.665
  O     -252.012     -41.264      88.912
  O     -251.714     -39.628      86.982
  H     -247.366     -36.023      87.613
  H     -252.348     -39.162      87.561
  H     -252.182     -32.622      90.439
  H     -250.653     -38.870      90.058
  H     -249.778     -35.602      88.200
  H     -248.120     -36.549      90.297
  H     -248.238     -38.868      89.598
  H     -247.942     -37.888      86.709
  H     -249.458     -39.793      86.194
  H     -254.570     -35.225      93.236
  H     -254.024     -36.888      92.998
  H     -248.006     -40.399      86.964
  P     -245.636     -39.610      89.164
  C     -245.031     -39.698      86.620
  O     -245.553     -40.362      87.752
  O     -246.200     -40.431      90.271
  O     -244.132     -39.121      89.401
  H     -243.695     -38.772      88.609
  H     -244.861     -40.434      85.831
  H     -244.085     -39.207      86.857
  H     -245.756     -38.958      86.263
  H     -250.503     -43.902      86.053
  H     -251.168     -43.738      87.661
  H     -249.535     -43.210      87.333

 3  4  5  6  7  8  9  10  11  12  22  25  29  30  31  32 0
 6-311+G(2d,p)
 ****
 33  36  37 0
 6-311+G(2d,p)
 ****
 1  2  13  14  15  16  17  18  19  20  21  23  24  26 0
 3-21G
 ****
 27  28  34  35  38  39  40  41  42  43  44  45  46  47  48 0
 3-21G
 ****


