%nproc=1
%NoSave
%Mem=1900MB
#P OB98/GEN NMR

erre ene a

0 1
  C      -39.421      21.640      22.948
  O      -39.677      21.347      24.307
  H      -39.831      20.834      22.334
  H      -38.347      21.714      22.759
  H      -39.912      22.576      22.667
  P      -38.953      22.247      25.423
  C      -39.135      21.911      27.977
  O      -39.843      22.084      26.751
  C      -40.029      21.266      29.039
  O      -41.030      22.204      29.482
  C      -40.809      20.062      28.534
  O      -40.010      18.932      28.256
  C      -41.938      19.955      29.548
  O      -41.589      19.207      30.708
  C      -42.166      21.437      29.930
  N      -43.418      21.954      29.392
  C      -44.276      22.542      30.315
  O      -44.033      22.615      31.519
  N      -45.459      23.012      29.815
  C      -45.876      22.907      28.520
  O      -46.969      23.312      28.141
  C      -44.937      22.253      27.595
  C      -43.767      21.812      28.066
  O      -38.692      23.673      25.041
  O      -37.628      21.423      25.774
  H      -42.355      19.241      31.313
  H      -36.970      21.990      26.244
  H      -46.089      23.451      30.466
  H      -45.236      22.149      26.561
  H      -43.057      21.324      27.403
  H      -42.201      21.545      31.022
  H      -42.821      19.478      29.114
  H      -41.278      20.337      27.581
  H      -39.406      21.001      29.900
  H      -38.824      22.902      28.324
  H      -38.244      21.300      27.804
  P      -40.596      17.565      27.672
  C      -39.742      15.702      26.075
  O      -39.609      17.050      26.512
  O      -42.070      17.513      27.433
  O      -40.266      16.541      28.876
  H      -40.988      15.884      28.906
  H      -39.025      15.504      25.306
  H      -40.729      15.547      25.691
  H      -39.572      15.041      26.899

 6  7  8  9  10  11  12  13  14  15  16  26  31  32  33  34  35 0
 6-311+G(2d,p)
 ****
 36  37 0
 6-311+G(2d,p)
 ****
 1  2  3  4  5  17  18  19  20  21  22  23  24  25 0
 3-21G
 ****
 27  28  29  30  38  39  40  41  42  43  44  45 0
 3-21G
 ****


