%nproc=1
%NoSave
%Mem=1900MB
#P OB98/GEN NMR

erre ene a

0 1
  C      759.326    1274.037     409.236
  O      759.843    1274.712     410.385
  P      759.803    1276.321     410.360
  C      758.594    1276.538     412.678
  O      758.545    1276.723     411.273
  C      757.564    1277.432     413.366
  O      757.974    1278.822     413.297
  C      756.184    1277.371     412.755
  O      755.510    1276.166     413.100
  C      755.556    1278.647     413.329
  O      755.106    1278.408     414.678
  C      756.754    1279.613     413.344
  N      756.709    1280.590     412.262
  C      755.659    1281.516     412.300
  O      754.810    1281.507     413.192
  N      755.629    1282.411     411.286
  C      756.504    1282.487     410.233
  O      756.422    1283.333     409.366
  C      757.550    1281.465     410.214
  C      757.613    1280.572     411.215
  O      759.320    1276.608     408.867
  O      761.109    1276.945     410.735
  H      758.689    1275.944     408.542
  H      755.909    1278.330     415.228
  H      754.886    1283.119     411.322
  H      758.239    1281.458     409.378
  H      758.371    1279.796     411.205
  H      756.796    1280.164     414.292
  H      754.697    1278.992     412.754
  H      756.258    1277.473     411.667
  H      757.525    1277.153     414.429
  H      759.593    1276.773     413.057
  H      758.402    1275.477     412.896
  P      755.087    1275.195     411.883
  C      755.369    1273.072     413.391
  O      755.729    1273.769     412.220
  O      756.008    1275.764     410.700
  O      753.627    1275.189     411.607
  H      756.923    1275.957     410.979
  H      755.632    1272.019     413.276
  H      754.287    1273.152     413.577
  H      755.922    1273.480     414.258
  H      759.409    1272.979     409.376
  H      759.884    1274.327     408.371
  H      758.297    1274.299     409.101

 3  4  5  6  7  8  9  10  11  12  13  24  28  29  30  31  32 0
 6-311+G(2d,p)
 ****
 33  34 0
 6-311+G(2d,p)
 ****
 1  2  14  15  16  17  18  19  20  21  22  23  25  26  27 0
 3-21G
 ****
 35  36  37  38  39  40  41  42  43  44  45 0
 3-21G
 ****


