%nproc=1
%NoSave
%Mem=1900MB
#P OB98/GEN NMR

erre ene a

0 1
  C      385.595     -28.968     -72.738
  O      384.791     -29.390     -73.818
  H      385.373     -27.919     -72.525
  H      386.658     -29.059     -72.982
  H      385.369     -29.561     -71.847
  P      385.113     -30.816     -74.489
  C      387.124     -31.829     -75.753
  O      386.591     -30.676     -75.104
  C      388.167     -31.437     -76.803
  O      387.566     -30.583     -77.803
  C      389.329     -30.632     -76.242
  O      390.190     -31.372     -75.404
  C      389.892     -29.958     -77.484
  O      390.827     -30.763     -78.197
  C      388.616     -29.755     -78.341
  N      388.221     -28.352     -78.412
  C      388.809     -27.609     -79.427
  O      389.634     -28.068     -80.221
  N      388.451     -26.289     -79.485
  C      387.625     -25.649     -78.610
  O      387.375     -24.449     -78.688
  C      387.052     -26.480     -77.540
  C      387.370     -27.777     -77.488
  O      384.094     -31.319     -75.469
  O      385.333     -31.783     -73.235
  H      391.684     -30.687     -77.733
  H      385.274     -32.733     -73.503
  H      388.862     -25.736     -80.221
  H      386.392     -26.006     -76.825
  H      386.964     -28.413     -76.708
  H      388.791     -30.104     -79.367
  H      390.400     -29.020     -77.235
  H      388.918     -29.830     -75.616
  H      388.517     -32.348     -77.302
  H      386.293     -32.348     -76.247
  H      387.566     -32.501     -75.008
  P      391.098     -30.706     -74.269
  C      393.307     -29.340     -74.161
  O      392.316     -29.940     -74.990
  O      391.389     -31.540     -73.064
  O      390.161     -29.481     -73.795
  H      390.312     -29.351     -72.838
  H      394.048     -28.871     -74.774
  H      393.768     -30.092     -73.555
  H      392.849     -28.606     -73.531

 6  7  8  9  10  11  12  13  14  15  16  26  31  32  33  34  35 0
 6-311+G(2d,p)
 ****
 36  37 0
 6-311+G(2d,p)
 ****
 1  2  3  4  5  17  18  19  20  21  22  23  24  25 0
 3-21G
 ****
 27  28  29  30  38  39  40  41  42  43  44  45 0
 3-21G
 ****


