%nproc=1
%NoSave
%Mem=1900MB
#P OB98/GEN NMR

erre ene a

0 1
  C      344.735     -63.809     151.046
  O      343.399     -63.853     151.511
  H      345.251     -64.711     151.385
  H      345.245     -62.935     151.463
  H      344.759     -63.773     149.953
  P      342.411     -62.704     150.970
  C      343.492     -60.806     152.426
  O      343.220     -61.331     151.136
  C      343.924     -59.340     152.327
  O      343.827     -58.739     153.639
  C      345.352     -59.151     151.829
  O      345.397     -57.986     151.003
  C      346.145     -58.909     153.103
  O      347.355     -58.192     152.851
  C      345.113     -58.176     153.971
  N      345.400     -58.307     155.401
  C      346.230     -57.330     155.965
  O      346.700     -56.435     155.265
  N      346.543     -57.419     157.298
  C      346.126     -58.433     157.995
  N      346.488     -58.475     159.303
  C      345.293     -59.512     157.426
  C      344.964     -59.379     156.143
  O      341.313     -62.647     152.134
  O      341.859     -62.963     149.609
  H      347.113     -57.314     152.478
  H      341.689     -62.712     153.028
  H      344.983     -60.345     158.041
  H      344.347     -60.122     155.647
  H      345.083     -57.109     153.721
  H      346.417     -59.870     153.561
  H      345.741     -60.006     151.276
  H      343.204     -58.813     151.688
  H      347.076     -57.724     159.651
  H      344.281     -61.385     152.913
  H      346.265     -59.240     159.923
  H      342.581     -60.895     153.025
  P      345.195     -58.143     149.419
  C      347.677     -58.158     148.715
  O      346.470     -58.901     148.803
  O      344.783     -56.905     148.692
  O      344.050     -59.265     149.312
  H      343.454     -59.020     148.576
  H      348.444     -58.772     148.291
  H      347.973     -57.842     149.693
  H      347.523     -57.300     148.094

 6  7  8  9  10  11  12  13  14  15  16  26  30  31  32  33  35 0
 6-311+G(2d,p)
 ****
 37  38 0
 6-311+G(2d,p)
 ****
 1  2  3  4  5  17  18  19  20  21  22  23  24  25 0
 3-21G
 ****
 27  28  29  34  36  39  40  41  42  43  44  45  46 0
 3-21G
 ****


