%nproc=1
%NoSave
%Mem=1900MB
#P OB98/GEN NMR

erre ene a

0 1
  C       60.200      76.590       5.637
  O       59.189      76.486       4.630
  P       59.708      76.240       3.131
  C       60.176      78.696       2.453
  O       60.728      77.425       2.761
  C       61.271      79.751       2.259
  O       62.031      79.947       3.487
  C       62.281      79.397       1.162
  O       62.675      80.629       0.542
  C       63.453      78.843       1.950
  O       64.653      78.852       1.181
  C       63.428      79.787       3.151
  N       67.890      79.977       5.505
  C       67.495      80.526       4.301
  N       68.408      81.280       3.652
  N       66.308      80.354       3.779
  C       65.485      79.611       4.559
  C       65.754      79.026       5.775
  C       67.082      79.198       6.325
  O       67.480      78.737       7.387
  N       64.650      78.373       6.275
  C       63.745      78.513       5.320
  N       64.182      79.298       4.290
  O       58.415      76.555       2.243
  O       60.222      74.859       2.893
  H       65.396      78.652       1.792
  H       57.983      75.724       1.972
  H       68.822      80.128       5.851
  H       62.754      78.090       5.338
  H       63.840      80.777       2.911
  H       63.248      77.811       2.259
  H       69.323      81.494       4.021
  H       61.907      78.697       0.409
  H       68.132      81.728       2.788
  H       60.787      80.706       2.020
  H       59.510      79.018       3.256
  H       59.550      78.607       1.558
  P       61.699      81.258      -0.560
  C       63.117      80.329      -2.515
  O       61.851      80.381      -1.890
  O       62.421      82.638      -0.938
  O       60.301      81.497      -0.091
  H       61.748      83.331      -1.074
  H       63.198      79.393      -3.072
  H       63.933      80.377      -1.787
  H       63.211      81.165      -3.213
  H       59.740      76.752       6.589
  H       60.847      77.411       5.409
  H       60.769      75.684       5.666

 3  4  5  6  7  8  9  10  11  12  23  26  30  31 0
 6-311+G(2d,p)
 ****
 33  35  36  37  38 0
 6-311+G(2d,p)
 ****
 1  2  13  14  15  16  17  18  19  20  21  22  24  25 0
 3-21G
 ****
 27  28  29  32  34  39  40  41  42  43  44  45  46  47  48  49 0
 3-21G
 ****


