%nproc=1
%NoSave
%Mem=1900MB
#P OB98/GEN NMR

erre ene a

0 1
  C     -119.315    -699.395      83.034
  O     -118.357    -698.471      83.572
  P     -118.757    -696.918      83.632
  C     -120.874    -695.889      84.738
  O     -119.715    -696.699      84.900
  C     -121.368    -695.400      86.104
  O     -121.781    -696.507      86.948
  C     -120.325    -694.641      86.903
  O     -120.254    -693.273      86.510
  C     -120.895    -694.740      88.313
  O     -121.935    -693.760      88.488
  C     -121.482    -696.157      88.330
  N     -121.070    -700.046      91.542
  C     -122.166    -699.272      91.213
  N     -123.335    -699.591      91.827
  N     -122.130    -698.283      90.360
  C     -120.907    -698.099      89.821
  C     -119.741    -698.787      90.057
  C     -119.798    -699.876      91.019
  O     -118.852    -700.593      91.358
  N     -118.700    -698.305      89.318
  C     -119.227    -697.324      88.608
  N     -120.563    -697.151      88.886
  O     -119.760    -696.763      82.389
  O     -117.594    -695.979      83.518
  H     -122.566    -693.884      87.747
  H     -119.733    -695.853      82.052
  H     -121.159    -700.803      92.213
  H     -118.688    -696.723      87.883
  H     -122.410    -696.226      88.901
  H     -120.141    -694.543      89.084
  H     -123.447    -700.369      92.453
  H     -119.338    -695.137      86.855
  H     -124.155    -699.049      91.576
  H     -122.239    -694.753      85.936
  H     -121.660    -696.452      84.235
  H     -120.628    -695.053      84.082
  P     -119.298    -692.901      85.269
  C     -119.483    -693.174      82.689
  O     -120.136    -693.247      83.949
  O     -118.173    -694.045      85.332
  O     -118.707    -691.539      85.332
  H     -117.318    -693.697      84.999
  H     -120.157    -693.596      81.926
  H     -118.547    -693.736      82.701
  H     -119.279    -692.121      82.435
  H     -118.909    -700.385      83.059
  H     -119.540    -699.127      82.023
  H     -120.210    -699.362      83.619

 3  4  5  6  7  8  9  10  11  12  23  26  30  31 0
 6-311+G(2d,p)
 ****
 33  35  36  37  38 0
 6-311+G(2d,p)
 ****
 1  2  13  14  15  16  17  18  19  20  21  22  24  25 0
 3-21G
 ****
 27  28  29  32  34  39  40  41  42  43  44  45  46  47  48  49 0
 3-21G
 ****


