%nproc=1
%NoSave
%Mem=1900MB
#P OB98/GEN NMR

erre ene a

0 1
  C       13.520      16.967     -63.862
  O       14.020      18.107     -63.189
  P       13.590      18.398     -61.675
  C       11.392      19.467     -62.567
  O       12.509      19.581     -61.715
  C       10.326      20.519     -62.228
  O        9.226      20.352     -63.156
  C        9.720      20.389     -60.835
  O        9.086      21.625     -60.498
  C        8.670      19.322     -61.051
  O        7.669      19.335     -60.037
  C        8.165      19.634     -62.483
  N        7.835      18.401     -63.222
  C        6.488      18.063     -63.312
  O        5.588      18.779     -62.875
  N        6.214      16.833     -63.844
  C        7.147      15.920     -64.237
  O        6.906      14.732     -64.416
  C        8.525      16.423     -64.341
  C        8.808      17.616     -63.811
  O       14.894      19.092     -61.063
  O       13.183      17.195     -60.895
  H        7.055      18.589     -60.234
  H       15.438      18.432     -60.592
  H        5.249      16.530     -63.776
  H        9.271      15.781     -64.789
  H        9.827      17.992     -63.826
  H        7.270      20.266     -62.464
  H        9.150      18.336     -61.029
  H       10.435      20.105     -60.057
  H       10.746      21.521     -62.375
  H       10.977      18.458     -62.487
  H       11.696      19.595     -63.612
  P        9.294      22.195     -59.014
  C        6.931      21.246     -58.682
  O        7.834      22.284     -58.356
  O       10.127      23.427     -58.898
  O        9.955      20.955     -58.241
  H       10.393      21.270     -57.429
  H        6.237      21.109     -57.849
  H        7.454      20.303     -58.868
  H        6.365      21.529     -59.573
  H       13.914      16.939     -64.856
  H       12.452      17.017     -63.903
  H       13.816      16.084     -63.336

 3  4  5  6  7  8  9  10  11  12  13  23  28  29  30  31  32 0
 6-311+G(2d,p)
 ****
 33  34 0
 6-311+G(2d,p)
 ****
 1  2  14  15  16  17  18  19  20  21  22  24  25  26  27 0
 3-21G
 ****
 35  36  37  38  39  40  41  42  43  44  45 0
 3-21G
 ****


