%nproc=1
%NoSave
%Mem=1900MB
#P OB98/GEN NMR

erre ene a

0 1
  C      162.233     -67.804    -101.234
  O      162.482     -66.488    -101.696
  H      162.819     -68.505    -101.835
  H      161.172     -68.043    -101.353
  H      162.524     -67.915    -100.187
  P      161.964     -65.251    -100.821
  C      159.687     -65.036    -102.025
  O      160.364     -65.338    -100.805
  C      158.437     -64.203    -101.757
  O      157.778     -63.931    -103.036
  C      157.397     -64.894    -100.851
  O      156.722     -63.868    -100.106
  C      156.468     -65.505    -101.883
  O      155.256     -65.935    -101.312
  C      156.403     -64.362    -102.898
  N      155.837     -64.753    -104.178
  C      154.455     -64.867    -104.254
  O      153.688     -64.647    -103.318
  N      153.957     -65.277    -105.468
  C      154.695     -65.569    -106.577
  O      154.197     -65.908    -107.644
  C      156.153     -65.454    -106.425
  C      156.652     -65.055    -105.260
  O      162.522     -63.915    -101.192
  O      162.356     -65.651     -99.321
  H      163.195     -65.215     -99.072
  H      154.650     -66.283    -102.007
  H      152.950     -65.364    -105.541
  H      156.766     -65.702    -107.284
  H      157.726     -64.962    -105.104
  H      155.841     -63.517    -102.488
  H      156.932     -66.393    -102.327
  H      157.846     -65.614    -100.158
  H      158.737     -63.231    -101.344
  H      159.407     -65.985    -102.494
  H      160.366     -64.490    -102.686
  P      157.112     -63.488     -98.589
  C      155.385     -64.915     -97.307
  O      156.757     -64.722     -97.620
  O      156.522     -62.186     -98.132
  O      158.709     -63.421     -98.559
  H      158.989     -62.712     -97.949
  H      155.282     -65.761     -96.660
  H      154.834     -65.086     -98.208
  H      155.005     -64.043     -96.817

 6  7  8  9  10  11  12  13  14  15  16  27  31  32  33  34  35 0
 6-311+G(2d,p)
 ****
 36  37 0
 6-311+G(2d,p)
 ****
 1  2  3  4  5  17  18  19  20  21  22  23  24  25 0
 3-21G
 ****
 26  28  29  30  38  39  40  41  42  43  44  45 0
 3-21G
 ****


