%nproc=1
%NoSave
%Mem=1900MB
#P OB98/GEN NMR

erre ene a

0 1
  C     -835.253    1620.142     594.341
  O     -835.982    1621.036     593.521
  H     -834.272    1619.977     593.897
  H     -835.764    1619.193     594.419
  H     -835.115    1620.567     595.348
  P     -837.511    1621.320     593.961
  C     -838.306    1620.132     591.787
  O     -838.310    1621.309     592.563
  C     -838.640    1620.466     590.315
  O     -839.993    1620.958     590.204
  C     -837.774    1621.574     589.733
  O     -836.482    1621.113     589.336
  C     -838.614    1621.951     588.511
  O     -838.496    1620.907     587.497
  C     -840.023    1621.940     589.151
  N     -840.424    1623.268     589.679
  C     -840.829    1624.218     588.710
  O     -840.844    1623.945     587.503
  N     -841.185    1625.469     589.135
  C     -841.143    1625.735     590.411
  N     -841.503    1627.001     590.766
  C     -840.748    1624.780     591.455
  C     -840.411    1623.567     591.011
  O     -837.500    1622.865     594.363
  O     -838.061    1620.404     595.013
  H     -837.567    1620.661     587.473
  H     -838.429    1623.181     594.517
  H     -840.711    1625.056     592.480
  H     -840.082    1622.810     591.706
  H     -840.768    1621.607     588.404
  H     -838.328    1622.897     588.047
  H     -837.709    1622.437     590.372
  H     -838.580    1619.542     589.742
  H     -841.724    1627.662     590.038
  H     -839.051    1619.438     592.177
  H     -841.381    1627.382     591.719
  H     -837.322    1619.658     591.828
  P     -835.215    1621.858     589.995
  C     -834.312    1622.665     587.690
  O     -834.068    1621.921     588.862
  O     -834.659    1620.748     591.023
  O     -835.496    1623.170     590.669
  H     -834.281    1621.187     591.820
  H     -833.460    1622.606     587.046
  H     -834.494    1623.687     587.948
  H     -835.168    1622.267     587.186

 6  7  8  9  10  11  12  13  14  15  16  26  30  31  32  33  35 0
 6-311+G(2d,p)
 ****
 37  38 0
 6-311+G(2d,p)
 ****
 1  2  3  4  5  17  18  19  20  21  22  23  24  25 0
 3-21G
 ****
 27  28  29  34  36  39  40  41  42  43  44  45  46 0
 3-21G
 ****


