%nproc=1
%NoSave
%Mem=1900MB
#P OB98/GEN NMR

erre ene a

0 1
  C       -6.154      67.937     -63.552
  O       -6.628      68.920     -62.631
  P       -5.593      69.594     -61.610
  C       -6.321      68.410     -59.441
  O       -5.299      68.561     -60.416
  C       -5.985      67.269     -58.471
  O       -6.896      67.277     -57.334
  C       -6.097      65.887     -59.128
  O       -5.130      64.983     -58.569
  C       -7.472      65.418     -58.695
  O       -7.599      64.001     -58.785
  C       -7.531      65.983     -57.277
  N      -11.775      63.441     -55.957
  C      -10.556      63.011     -56.352
  N       -9.468      63.744     -56.664
  C       -9.723      65.056     -56.523
  C      -10.913      65.642     -56.121
  C      -11.980      64.773     -55.836
  N      -13.229      65.212     -55.463
  N      -10.801      67.018     -56.099
  C       -9.579      67.258     -56.527
  N       -8.879      66.106     -56.765
  O       -5.924      70.981     -61.175
  O       -4.216      69.565     -62.433
  H       -8.413      63.750     -58.312
  H       -3.746      70.411     -62.299
  H      -10.442      61.933     -56.431
  H       -9.159      68.239     -56.696
  H       -6.961      65.367     -56.571
  H       -8.237      65.872     -59.335
  H       -5.986      65.890     -60.217
  H       -4.977      67.426     -58.073
  H       -7.274      68.209     -59.935
  H      -13.962      64.523     -55.393
  H      -13.435      66.200     -55.513
  H       -6.453      69.359     -58.910
  P       -3.764      64.806     -59.405
  C       -4.936      63.926     -61.569
  O       -4.178      64.937     -60.946
  O       -2.991      63.586     -59.031
  O       -3.001      66.175     -59.082
  H       -3.531      66.979     -59.213
  H       -5.218      64.262     -62.569
  H       -5.847      63.716     -61.002
  H       -4.341      63.013     -61.662
  H       -6.967      67.592     -64.156
  H       -5.737      67.113     -63.011
  H       -5.402      68.369     -64.179

 3  4  5  6  7  8  9  10  11  12  22  25  29  30  31  32 0
 6-311+G(2d,p)
 ****
 33  36  37 0
 6-311+G(2d,p)
 ****
 1  2  13  14  15  16  17  18  19  20  21  23  24  26 0
 3-21G
 ****
 27  28  34  35  38  39  40  41  42  43  44  45  46  47  48 0
 3-21G
 ****


