%nproc=1
%NoSave
%Mem=1900MB
#P OB98/GEN NMR

erre ene a

0 1
  C     -149.904     162.216     -20.063
  O     -149.446     163.086     -21.085
  P     -150.469     163.428     -22.277
  C     -151.478     165.535     -21.125
  O     -151.704     164.211     -21.606
  C     -152.795     166.306     -20.983
  O     -153.665     165.587     -20.075
  C     -152.628     167.730     -20.450
  O     -153.579     168.565     -21.118
  C     -153.012     167.613     -18.987
  O     -153.460     168.858     -18.454
  C     -154.090     166.513     -19.054
  N     -154.271     165.846     -17.766
  C     -154.849     166.603     -16.737
  O     -155.096     167.796     -16.913
  N     -155.073     166.004     -15.519
  C     -154.663     164.790     -15.317
  N     -154.915     164.236     -14.098
  C     -153.946     163.999     -16.337
  C     -153.806     164.573     -17.531
  O     -151.090     162.000     -22.639
  O     -149.845     164.092     -23.460
  H     -154.302     169.100     -18.904
  H     -151.310     161.944     -23.585
  H     -153.593     163.002     -16.104
  H     -153.312     164.058     -18.350
  H     -155.054     166.937     -19.367
  H     -152.153     167.270     -18.400
  H     -151.621     168.128     -20.606
  H     -153.287     166.323     -21.966
  H     -155.395     164.808     -13.411
  H     -150.847     166.069     -21.843
  H     -154.629     163.298     -13.849
  H     -150.952     165.492     -20.172
  P     -153.187     170.099     -21.367
  C     -152.331     169.885     -23.782
  O     -151.977     170.047     -22.423
  O     -152.412     170.456     -20.004
  O     -154.281     171.078     -21.636
  H     -152.167     171.400     -20.006
  H     -151.431     170.000     -24.395
  H     -153.061     170.638     -24.080
  H     -152.734     168.881     -23.948
  H     -149.128     162.076     -19.340
  H     -150.168     161.271     -20.491
  H     -150.761     162.645     -19.587

 3  4  5  6  7  8  9  10  11  12  13  21  23  27  28  29  30  32 0
 6-311+G(2d,p)
 ****
 34  35 0
 6-311+G(2d,p)
 ****
 1  2  14  15  16  17  18  19  20  22  24  25  26 0
 3-21G
 ****
 31  33  36  37  38  39  40  41  42  43  44  45  46 0
 3-21G
 ****


