%nproc=1
%NoSave
%Mem=1900MB
#P OB98/GEN NMR

erre ene a

0 1
  C       28.681     -66.308     -65.131
  O       29.045     -67.533     -64.525
  H       27.640     -66.376     -65.460
  H       29.309     -66.107     -66.004
  H       28.767     -65.488     -64.413
  P       30.554     -67.719     -64.026
  C       31.282     -68.876     -66.224
  O       31.463     -67.770     -65.345
  C       32.605     -69.265     -66.879
  O       32.899     -68.382     -67.979
  C       33.809     -69.182     -65.947
  O       33.820     -70.271     -65.047
  C       34.944     -69.157     -66.959
  O       35.212     -70.475     -67.463
  C       34.338     -68.260     -68.068
  N       34.748     -66.863     -67.975
  C       35.889     -66.506     -68.703
  O       36.496     -67.353     -69.360
  N       36.319     -65.202     -68.647
  C       35.650     -64.325     -67.967
  N       36.126     -63.051     -67.957
  C       34.423     -64.653     -67.215
  C       34.041     -65.928     -67.253
  O       30.799     -68.840     -63.063
  O       30.926     -66.299     -63.386
  H       35.934     -70.373     -68.114
  H       30.764     -66.305     -62.424
  H       33.891     -63.888     -66.669
  H       33.148     -66.253     -66.725
  H       34.626     -68.633     -69.060
  H       35.873     -68.782     -66.530
  H       33.807     -68.227     -65.408
  H       32.495     -70.278     -67.289
  H       36.960     -62.871     -68.506
  H       30.561     -68.565     -66.989
  H       35.605     -62.263     -67.603
  H       30.862     -69.733     -65.685
  P       34.261     -70.092     -63.515
  C       36.358     -71.554     -63.794
  O       35.858     -70.257     -63.500
  O       33.531     -70.950     -62.539
  O       34.074     -68.524     -63.251
  H       33.118     -68.308     -63.122
  H       37.427     -71.541     -63.754
  H       36.041     -71.845     -64.774
  H       35.983     -72.252     -63.075

 6  7  8  9  10  11  12  13  14  15  16  26  30  31  32  33  35 0
 6-311+G(2d,p)
 ****
 37  38 0
 6-311+G(2d,p)
 ****
 1  2  3  4  5  17  18  19  20  21  22  23  24  25 0
 3-21G
 ****
 27  28  29  34  36  39  40  41  42  43  44  45  46 0
 3-21G
 ****


