%nproc=1
%NoSave
%Mem=1900MB
#P OB98/GEN NMR

erre ene a

0 1
  C      242.165     226.164    -250.035
  O      242.950     225.052    -249.593
  P      244.540     225.151    -249.781
  C      245.423     225.275    -247.336
  O      245.246     224.486    -248.506
  C      246.639     224.785    -246.547
  O      247.071     225.767    -245.586
  C      246.361     223.530    -245.736
  O      246.368     222.387    -246.569
  C      247.493     223.554    -244.714
  O      248.656     222.859    -245.192
  C      247.785     225.065    -244.553
  N      247.435     225.565    -243.234
  C      248.468     225.581    -242.291
  O      249.588     225.165    -242.591
  N      248.196     226.044    -241.029
  C      246.994     226.432    -240.728
  N      246.785     226.874    -239.460
  C      245.869     226.404    -241.686
  C      246.158     225.963    -242.908
  O      244.835     226.714    -249.597
  O      245.024     224.652    -251.104
  H      248.939     223.339    -245.997
  H      245.585     226.983    -250.155
  H      244.886     226.731    -241.389
  H      245.395     225.909    -243.678
  H      248.851     225.264    -244.717
  H      247.198     223.069    -243.780
  H      245.396     223.624    -245.222
  H      247.461     224.600    -247.255
  H      247.578     226.877    -238.827
  H      244.529     225.226    -246.709
  H      245.891     227.194    -239.116
  H      245.544     226.324    -247.630
  P      245.398     221.175    -246.180
  C      243.259     221.589    -247.540
  O      244.505     220.920    -247.488
  O      244.347     221.888    -245.199
  O      246.017     219.971    -245.553
  H      243.748     221.225    -244.814
  H      242.856     221.499    -248.552
  H      243.380     222.649    -247.302
  H      242.560     221.124    -246.841
  H      241.130     225.965    -249.851
  H      242.318     226.315    -251.083
  H      242.460     227.043    -249.501

 3  4  5  6  7  8  9  10  11  12  13  21  23  27  28  29  30  32 0
 6-311+G(2d,p)
 ****
 34  35 0
 6-311+G(2d,p)
 ****
 1  2  14  15  16  17  18  19  20  22  24  25  26 0
 3-21G
 ****
 31  33  36  37  38  39  40  41  42  43  44  45  46 0
 3-21G
 ****


