%nproc=1
%NoSave
%Mem=1900MB
#P OB98/GEN NMR

erre ene a

0 1
  C     -218.573     685.476    -893.460
  O     -218.516     684.938    -894.770
  H     -219.531     685.215    -893.000
  H     -218.495     686.572    -893.500
  H     -217.766     685.075    -892.850
  P     -217.129     685.070    -895.550
  C     -216.112     682.721    -894.950
  O     -216.671     683.581    -895.950
  C     -216.305     681.264    -895.360
  O     -217.693     680.862    -895.260
  C     -215.947     680.973    -896.820
  O     -214.561     681.026    -897.060
  C     -216.560     679.595    -896.990
  O     -215.713     678.578    -896.420
  C     -217.870     679.735    -896.180
  N     -219.039     679.911    -897.030
  C     -219.508     678.744    -897.660
  O     -218.928     677.661    -897.460
  N     -220.572     678.844    -898.500
  C     -221.159     679.989    -898.680
  N     -222.224     680.016    -899.550
  C     -220.714     681.229    -898.010
  C     -219.673     681.119    -897.190
  O     -216.105     685.470    -894.400
  O     -217.131     685.998    -896.710
  H     -216.149     677.716    -896.600
  H     -216.132     684.859    -893.630
  H     -221.247     682.157    -898.190
  H     -219.272     681.970    -896.690
  H     -218.028     678.856    -895.540
  H     -216.705     679.328    -898.030
  H     -216.490     681.667    -897.470
  H     -215.717     680.631    -894.690
  H     -222.475     679.134    -900.000
  H     -216.570     682.909    -893.970
  H     -222.720     680.853    -899.800
  H     -215.050     682.951    -894.860
  P     -213.990     681.409    -898.510
  C     -212.979     683.631    -897.700
  O     -212.703     682.371    -898.280
  O     -215.014     681.965    -899.440
  O     -213.316     680.041    -899.020
  H     -212.592     679.708    -898.430
  H     -212.068     684.182    -897.593
  H     -213.426     683.491    -896.738
  H     -213.652     684.174    -898.330

 6  7  8  9  10  11  12  13  14  15  16  26  30  31  32  33  35 0
 6-311+G(2d,p)
 ****
 37  38 0
 6-311+G(2d,p)
 ****
 1  2  3  4  5  17  18  19  20  21  22  23  24  25 0
 3-21G
 ****
 27  28  29  34  36  39  40  41  42  43  44  45  46 0
 3-21G
 ****


