%nproc=1
%NoSave
%Mem=1900MB
#P OB98/GEN NMR

erre ene a

0 1
  C      129.578     411.288    -309.694
  O      130.398     410.621    -310.634
  H      130.205     411.947    -309.088
  H      129.094     410.560    -309.037
  H      128.823     411.894    -310.207
  P      129.649     409.738    -311.748
  C      127.580     408.122    -311.620
  O      128.613     408.816    -310.940
  C      127.414     406.711    -311.056
  O      128.529     405.899    -311.509
  C      127.389     406.656    -309.530
  O      126.483     405.622    -309.128
  C      128.807     406.251    -309.166
  O      128.881     405.643    -307.879
  C      129.164     405.330    -310.344
  N      130.609     405.194    -310.528
  C      131.280     404.368    -309.624
  O      130.665     403.802    -308.720
  N      132.643     404.227    -309.742
  C      133.286     404.906    -310.637
  N      134.635     404.746    -310.684
  C      132.619     405.828    -311.584
  C      131.295     405.913    -311.484
  O      130.801     408.721    -312.189
  O      129.061     410.526    -312.867
  H      128.315     404.840    -307.878
  H      131.297     408.348    -311.438
  H      133.201     406.382    -312.313
  H      130.725     406.558    -312.141
  H      128.742     404.327    -310.189
  H      129.459     407.129    -309.161
  H      127.090     407.606    -309.077
  H      126.507     406.268    -311.482
  H      135.053     404.119    -310.001
  H      127.803     408.063    -312.693
  H      135.243     405.264    -311.302
  H      126.651     408.694    -311.496
  P      124.986     406.006    -308.706
  C      123.803     407.512    -306.967
  O      125.021     406.903    -307.377
  O      124.012     404.879    -308.687
  O      124.570     407.083    -309.831
  H      123.643     406.899    -310.084
  H      123.970     408.076    -306.073
  H      123.071     406.754    -306.779
  H      123.452     408.163    -307.740

 6  7  8  9  10  11  12  13  14  15  16  26  30  31  32  33  35 0
 6-311+G(2d,p)
 ****
 37  38 0
 6-311+G(2d,p)
 ****
 1  2  3  4  5  17  18  19  20  21  22  23  24  25 0
 3-21G
 ****
 27  28  29  34  36  39  40  41  42  43  44  45  46 0
 3-21G
 ****


