%nproc=1
%NoSave
%Mem=1900MB
#P OB98/GEN NMR

erre ene a

0 1
  C      -28.025     513.203     213.712
  O      -27.797     512.733     215.023
  H      -28.850     512.637     213.271
  H      -27.127     513.049     213.104
  H      -28.291     514.264     213.709
  P      -26.984     513.656     216.042
  C      -24.661     514.789     215.998
  O      -25.442     513.670     215.591
  C      -23.249     514.736     215.413
  O      -23.325     514.582     213.973
  C      -22.462     516.019     215.673
  O      -21.767     516.037     216.918
  C      -21.479     516.031     214.505
  O      -20.280     515.298     214.813
  C      -22.258     515.333     213.380
  N      -22.402     516.814     208.487
  C      -21.567     515.890     209.087
  N      -20.640     515.326     208.290
  N      -21.636     515.580     210.356
  C      -22.554     516.299     211.049
  C      -23.421     517.250     210.564
  C      -23.388     517.546     209.147
  O      -24.116     518.339     208.561
  N      -24.181     517.808     211.575
  C      -23.705     517.244     212.670
  N      -22.778     516.267     212.393
  O      -26.945     512.784     217.389
  O      -27.590     515.003     216.313
  H      -19.686     515.351     214.035
  H      -26.941     513.373     218.162
  H      -22.322     517.000     207.505
  H      -24.032     517.471     213.683
  H      -21.628     514.617     212.836
  H      -21.172     517.054     214.260
  H      -20.484     515.598     207.326
  H      -23.106     516.902     215.589
  H      -19.889     514.795     208.727
  H      -22.728     513.851     215.801
  H      -24.620     514.756     217.086
  H      -25.162     515.719     215.719
  P      -21.233     517.411     217.530
  C      -19.292     519.090     216.975
  O      -20.019     517.924     216.642
  O      -20.516     516.941     218.896
  O      -22.277     518.455     217.776
  H      -21.118     517.082     219.655
  H      -18.524     519.251     216.248
  H      -18.849     518.970     217.942
  H      -19.953     519.931     216.987

 6  7  8  9  10  11  12  13  14  15  26  29  33  34 0
 6-311+G(2d,p)
 ****
 36  38  39  40  41 0
 6-311+G(2d,p)
 ****
 1  2  3  4  5  16  17  18  19  20  21  22  23  24  25 0
 3-21G
 ****
 27  28  30  31  32  35  37  42  43  44  45  46  47 0
 3-21G
 ****
 48  49 0
 3-21G
 ****


