%nproc=1
%NoSave
%Mem=1900MB
#P OB98/GEN NMR

erre ene a

0 1
  C      280.683     190.224     -78.327
  O      279.496     190.856     -78.758
  H      281.302     190.961     -77.806
  H      281.244     189.838     -79.182
  H      280.453     189.411     -77.634
  P      278.438     190.010     -79.612
  C      276.918     189.142     -77.714
  O      277.052     190.050     -78.803
  C      275.469     189.129     -77.214
  O      275.357     188.077     -76.220
  C      275.061     190.456     -76.559
  O      273.863     191.004     -77.105
  C      275.072     190.131     -75.070
  O      274.217     190.936     -74.284
  C      274.748     188.634     -75.039
  N      275.228     187.948     -73.841
  C      274.272     187.515     -72.926
  O      273.055     187.640     -73.061
  N      274.764     186.893     -71.807
  C      276.078     186.679     -71.518
  O      276.457     186.109     -70.501
  C      277.041     187.179     -72.512
  C      276.579     187.783     -73.609
  O      278.882     188.644     -80.020
  O      278.138     190.934     -80.883
  H      274.445     190.785     -73.345
  H      278.623     190.594     -81.659
  H      274.078     186.565     -71.143
  H      278.093     187.033     -72.308
  H      277.263     188.164     -74.363
  H      273.671     188.474     -75.104
  H      276.092     190.285     -74.694
  H      275.807     191.236     -76.757
  H      274.808     188.867     -78.048
  H      277.592     189.469     -76.917
  H      277.208     188.135     -78.036
  P      273.698     192.514     -77.599
  C      272.902     192.618     -80.095
  O      272.557     192.551     -78.720
  O      274.967     193.237     -77.901
  O      273.011     193.245     -76.334
  H      273.344     194.167     -76.330
  H      272.010     192.634     -80.686
  H      273.489     191.763     -80.358
  H      273.467     193.508     -80.278

 6  7  8  9  10  11  12  13  14  15  16  26  31  32  33  34  35 0
 6-311+G(2d,p)
 ****
 36  37 0
 6-311+G(2d,p)
 ****
 1  2  3  4  5  17  18  19  20  21  22  23  24  25 0
 3-21G
 ****
 27  28  29  30  38  39  40  41  42  43  44  45 0
 3-21G
 ****


