%nproc=1
%NoSave
%Mem=1900MB
#P OB98/GEN NMR

erre ene a

0 1
  C     -180.850     -86.730    -153.926
  O     -179.550     -86.504    -153.409
  P     -178.287     -86.963    -154.286
  C     -176.419     -88.710    -153.675
  O     -177.795     -88.362    -153.674
  C     -176.243     -90.176    -153.265
  O     -176.639     -90.325    -151.870
  C     -177.074     -91.171    -154.086
  O     -176.294     -92.367    -154.214
  C     -178.283     -91.415    -153.201
  O     -178.941     -92.635    -153.495
  C     -177.633     -91.368    -151.812
  N     -178.588     -91.107    -150.733
  C     -179.129     -92.201    -150.065
  O     -178.873     -93.370    -150.346
  N     -180.021     -91.904    -149.066
  C     -180.460     -90.656    -148.720
  O     -181.272     -90.454    -147.826
  C     -179.887     -89.545    -149.489
  C     -178.986     -89.814    -150.438
  O     -177.182     -85.914    -153.806
  O     -178.550     -86.980    -155.754
  H     -177.257     -85.685    -152.865
  H     -178.301     -93.360    -153.381
  H     -180.401     -92.682    -148.544
  H     -180.222     -88.542    -149.257
  H     -178.549     -89.011    -151.020
  H     -177.104     -92.309    -151.615
  H     -179.003     -90.598    -153.334
  H     -177.330     -90.785    -155.077
  H     -175.176     -90.422    -153.326
  H     -175.884     -88.073    -152.964
  H     -176.002     -88.529    -154.670
  P     -176.693     -93.413    -155.373
  C     -178.446     -95.344    -155.595
  O     -177.939     -94.266    -154.843
  O     -175.471     -94.450    -155.253
  O     -176.818     -92.821    -156.740
  H     -175.303     -94.726    -154.337
  H     -179.042     -95.986    -154.935
  H     -177.643     -95.942    -156.031
  H     -179.096     -94.963    -156.390
  H     -181.578     -86.371    -153.229
  H     -180.994     -87.778    -154.084
  H     -180.960     -86.211    -154.855

 3  4  5  6  7  8  9  10  11  12  13  24  28  29  30  31  32 0
 6-311+G(2d,p)
 ****
 33  34 0
 6-311+G(2d,p)
 ****
 1  2  14  15  16  17  18  19  20  21  22  23  25  26  27 0
 3-21G
 ****
 35  36  37  38  39  40  41  42  43  44  45 0
 3-21G
 ****


