%nproc=1
%NoSave
%Mem=1900MB
#P OB98/GEN NMR

erre ene a

0 1
  C     -519.464     273.018     364.256
  O     -518.676     273.165     365.423
  H     -519.289     272.024     363.837
  H     -519.172     273.767     363.515
  H     -520.526     273.121     364.494
  P     -518.920     274.493     366.293
  C     -520.781     273.602     367.917
  O     -519.430     273.982     367.726
  C     -521.275     274.029     369.300
  O     -522.683     273.700     369.416
  C     -520.538     273.344     370.454
  O     -520.419     274.276     371.530
  C     -521.481     272.223     370.857
  O     -521.262     271.797     372.200
  C     -522.851     272.872     370.588
  N     -523.910     271.886     370.406
  C     -524.450     271.326     371.573
  O     -524.023     271.660     372.676
  N     -525.430     270.373     371.456
  C     -525.794     269.962     370.279
  N     -526.754     269.000     370.233
  C     -525.221     270.494     369.028
  C     -524.299     271.448     369.161
  O     -520.234     275.097     365.609
  O     -517.758     275.428     366.328
  H     -521.303     272.584     372.787
  H     -520.918     274.428     365.430
  H     -525.546     270.111     368.070
  H     -523.832     271.898     368.298
  H     -523.129     273.531     371.421
  H     -521.337     271.356     370.204
  H     -519.548     272.983     370.166
  H     -521.196     275.120     369.373
  H     -527.102     268.646     371.118
  H     -520.891     272.516     367.810
  H     -527.070     268.566     369.377
  H     -521.382     274.081     367.135
  P     -519.301     274.051     372.653
  C     -517.254     274.950     371.354
  O     -518.130     275.127     372.461
  O     -518.847     272.644     372.846
  O     -520.031     274.581     373.986
  H     -519.806     273.964     374.716
  H     -516.526     275.734     371.347
  H     -517.818     274.979     370.445
  H     -516.760     274.005     371.438

 6  7  8  9  10  11  12  13  14  15  16  26  30  31  32  33  35 0
 6-311+G(2d,p)
 ****
 37  38 0
 6-311+G(2d,p)
 ****
 1  2  3  4  5  17  18  19  20  21  22  23  24  25 0
 3-21G
 ****
 27  28  29  34  36  39  40  41  42  43  44  45  46 0
 3-21G
 ****


