%nproc=1
%NoSave
%Mem=1900MB
#P OB98/GEN NMR

erre ene a

0 1
  C     -318.245     316.736    -590.787
  O     -317.948     316.910    -592.167
  P     -317.018     315.837    -592.901
  C     -318.935     315.235    -594.533
  O     -317.969     314.733    -593.592
  C     -319.876     314.108    -594.980
  O     -320.780     313.710    -593.926
  C     -320.772     314.504    -596.139
  O     -320.032     314.544    -597.353
  C     -321.850     313.445    -596.071
  O     -321.427     312.221    -596.704
  C     -321.987     313.224    -594.541
  N     -323.172     313.835    -593.974
  C     -324.373     313.118    -594.122
  O     -324.383     312.070    -594.758
  N     -325.523     313.647    -593.577
  C     -325.490     314.779    -592.947
  N     -326.645     315.243    -592.422
  C     -324.240     315.560    -592.764
  C     -323.129     315.035    -593.290
  O     -315.900     315.270    -592.082
  O     -316.457     316.650    -594.169
  H     -321.074     312.471    -597.573
  H     -315.571     316.307    -594.393
  H     -324.261     316.492    -592.200
  H     -322.185     315.539    -593.212
  H     -322.027     312.135    -594.311
  H     -322.775     313.754    -596.553
  H     -321.220     315.497    -595.943
  H     -319.253     313.234    -595.265
  H     -327.488     314.684    -592.563
  H     -318.412     315.646    -595.404
  H     -326.705     316.082    -591.852
  H     -319.493     316.056    -594.068
  P     -319.368     315.939    -597.778
  C     -317.031     315.378    -596.808
  O     -318.151     316.233    -596.776
  O     -320.478     317.032    -597.358
  O     -319.043     316.066    -599.241
  H     -320.484     317.762    -597.978
  H     -316.197     315.882    -596.309
  H     -316.747     315.134    -597.828
  H     -317.248     314.457    -596.251
  H     -318.874     317.535    -590.454
  H     -317.336     316.739    -590.223
  H     -318.749     315.803    -590.646

 3  4  5  6  7  8  9  10  11  12  13  23  27  28  29  30  32 0
 6-311+G(2d,p)
 ****
 34  35 0
 6-311+G(2d,p)
 ****
 1  2  14  15  16  17  18  19  20  21  22  24  25  26 0
 3-21G
 ****
 31  33  36  37  38  39  40  41  42  43  44  45  46 0
 3-21G
 ****


