%nproc=1
%NoSave
%Mem=1900MB
#P OB98/GEN NMR

erre ene a

0 1
  C      468.891     -22.392      46.612
  O      467.834     -22.132      47.513
  P      467.797     -22.846      48.946
  C      468.848     -20.918      50.282
  O      468.999     -22.261      49.830
  C      468.991     -20.847      51.800
  O      470.322     -21.243      52.209
  C      468.801     -19.455      52.377
  O      467.442     -19.054      52.362
  C      469.404     -19.624      53.764
  O      468.471     -20.248      54.655
  C      470.584     -20.576      53.470
  N      471.866     -19.887      53.450
  C      472.561     -19.847      54.663
  O      472.055     -20.302      55.690
  N      473.811     -19.279      54.683
  C      474.267     -18.696      53.621
  N      475.536     -18.203      53.679
  C      473.495     -18.575      52.368
  C      472.326     -19.207      52.345
  O      467.715     -24.337      48.913
  O      466.502     -22.225      49.656
  H      465.955     -22.956      50.008
  H      467.704     -19.649      54.722
  H      473.896     -18.018      51.533
  H      471.697     -19.193      51.460
  H      470.627     -21.373      54.225
  H      469.696     -18.671      54.214
  H      469.397     -18.734      51.805
  H      468.272     -21.549      52.246
  H      476.041     -18.319      54.550
  H      467.854     -20.561      49.990
  H      476.095     -18.031      52.845
  H      469.597     -20.286      49.794
  P      467.141     -17.510      52.052
  C      466.686     -17.870      49.530
  O      467.491     -17.253      50.511
  O      468.306     -16.742      52.840
  O      465.791     -17.039      52.486
  H      467.960     -15.909      53.207
  H      466.816     -17.338      48.583
  H      465.625     -17.841      49.804
  H      467.000     -18.908      49.396
  H      468.742     -21.827      45.715
  H      468.911     -23.436      46.377
  H      469.820     -22.110      47.061

 3  4  5  6  7  8  9  10  11  12  13  24  27  28  29  30  32 0
 6-311+G(2d,p)
 ****
 34  35 0
 6-311+G(2d,p)
 ****
 1  2  14  15  16  17  18  19  20  21  22  23  25  26 0
 3-21G
 ****
 31  33  36  37  38  39  40  41  42  43  44  45  46 0
 3-21G
 ****


