%nproc=1
%NoSave
%Mem=1900MB
#P OB98/GEN NMR

erre ene a

0 1
  C     -898.710     137.845     430.495
  O     -897.750     138.690     431.158
  P     -898.070     140.212     431.526
  C     -896.220     141.547     430.331
  O     -897.620     141.195     430.327
  C     -896.000     143.030     429.936
  O     -896.590     143.947     430.905
  C     -894.510     143.426     429.816
  O     -894.470     144.439     428.797
  C     -894.220     144.012     431.169
  O     -893.070     144.847     431.201
  C     -895.540     144.755     431.432
  N     -895.070     148.250     435.172
  C     -894.950     148.341     433.834
  N     -895.120     147.388     432.911
  C     -895.500     146.216     433.467
  C     -895.690     145.976     434.839
  C     -895.420     147.059     435.693
  N     -895.500     146.944     437.070
  N     -896.030     144.652     435.041
  C     -896.070     144.127     433.815
  N     -895.750     145.023     432.864
  O     -897.590     140.633     432.875
  O     -899.680     140.292     431.478
  H     -892.290     144.299     431.037
  H     -900.000     140.777     432.264
  H     -894.670     149.330     433.460
  H     -896.290     143.089     433.635
  H     -895.570     145.728     430.901
  H     -894.050     143.205     431.907
  H     -893.860     142.589     429.546
  H     -896.540     143.204     429.005
  H     -895.690     140.909     429.646
  H     -895.230     147.757     437.627
  H     -895.660     146.044     437.485
  H     -895.830     141.381     431.355
  P     -894.120     144.089     427.267
  C     -891.600     144.356     427.628
  O     -892.630     143.480     427.261
  O     -894.350     145.202     426.301
  O     -895.050     142.820     426.929
  H     -895.130     142.735     425.951
  H     -891.390     145.057     426.806
  H     -890.710     143.786     427.862
  H     -891.890     144.945     428.531
  H     -898.288     136.873     430.348
  H     -898.965     138.270     429.547
  H     -899.590     137.764     431.098

 3  4  5  6  7  8  9  10  11  12  22  25  29  30  31  32 0
 6-311+G(2d,p)
 ****
 33  36  37 0
 6-311+G(2d,p)
 ****
 1  2  13  14  15  16  17  18  19  20  21  23  24  26 0
 3-21G
 ****
 27  28  34  35  38  39  40  41  42  43  44  45  46  47  48 0
 3-21G
 ****


