%nproc=1
%NoSave
%Mem=1900MB
#P OB98/GEN NMR

erre ene a

0 1
  C       70.775      68.035    -104.326
  O       71.025      66.702    -104.714
  H       70.010      68.032    -103.544
  H       70.401      68.603    -105.182
  H       71.676      68.513    -103.934
  P       72.377      66.371    -105.501
  C       71.701      66.656    -107.975
  O       71.975      65.740    -106.922
  C       71.720      65.975    -109.343
  O       71.356      66.918    -110.375
  C       73.110      65.457    -109.715
  O       73.441      64.182    -109.196
  C       73.032      65.425    -111.239
  O       72.447      64.194    -111.696
  C       72.114      66.607    -111.557
  N       74.921      68.784    -115.227
  C       74.436      67.493    -115.155
  N       74.795      66.663    -116.159
  N       73.687      67.059    -114.176
  C       73.491      67.972    -113.196
  C       73.932      69.276    -113.151
  C       74.716      69.764    -114.267
  O       75.175      70.896    -114.377
  N       73.532      69.902    -111.995
  C       72.917      68.958    -111.312
  N       72.844      67.777    -112.010
  O       72.969      65.103    -104.716
  O       73.377      67.485    -105.554
  H       72.408      64.215    -112.669
  H       73.936      65.070    -104.820
  H       75.470      69.072    -116.018
  H       72.486      69.084    -110.324
  H       71.392      66.353    -112.343
  H       74.024      65.490    -111.696
  H       75.463      66.919    -116.870
  H       73.877      66.183    -109.427
  H       74.686      65.659    -116.009
  H       70.973      65.173    -109.358
  H       72.474      67.426    -107.930
  H       70.741      67.150    -107.807
  P       74.863      63.945    -108.501
  C       75.735      61.956    -109.936
  O       75.226      62.396    -108.696
  O       74.521      64.064    -106.943
  O       75.930      64.901    -108.910
  H       74.717      64.964    -106.623
  H       75.921      60.903    -109.892
  H       76.648      62.471    -110.150
  H       75.022      62.160    -110.707

 6  7  8  9  10  11  12  13  14  15  26  29  33  34 0
 6-311+G(2d,p)
 ****
 36  38  39  40  41 0
 6-311+G(2d,p)
 ****
 1  2  3  4  5  16  17  18  19  20  21  22  23  24  25 0
 3-21G
 ****
 27  28  30  31  32  35  37  42  43  44  45  46  47 0
 3-21G
 ****
 48  49 0
 3-21G
 ****


