%nproc=1
%NoSave
%Mem=1900MB
#P OB98/GEN NMR

erre ene a

0 1
  C      917.519    -721.475    -229.687
  O      917.994    -721.704    -228.372
  H      918.378    -721.374    -230.358
  H      916.955    -720.543    -229.700
  H      916.891    -722.300    -230.027
  P      916.945    -722.267    -227.302
  C      917.153    -723.030    -224.822
  O      917.679    -722.225    -225.870
  C      918.056    -722.970    -223.593
  O      919.295    -723.682    -223.890
  C      918.433    -721.544    -223.163
  O      918.485    -721.487    -221.730
  C      919.840    -721.387    -223.696
  O      920.579    -720.391    -222.992
  C      920.373    -722.802    -223.507
  N      925.390    -722.662    -223.315
  C      924.450    -722.566    -222.316
  N      924.906    -722.340    -221.059
  N      923.160    -722.684    -222.513
  C      922.837    -722.929    -223.804
  C      923.668    -723.036    -224.893
  C      925.095    -722.893    -224.660
  O      925.977    -722.937    -225.519
  N      922.949    -723.226    -226.045
  C      921.681    -723.209    -225.660
  N      921.571    -723.026    -224.307
  O      916.887    -723.832    -227.651
  O      915.589    -721.641    -227.345
  H      920.081    -719.557    -223.031
  H      916.143    -724.011    -228.253
  H      926.369    -722.542    -223.111
  H      920.829    -723.297    -226.307
  H      920.641    -723.020    -222.467
  H      919.814    -721.112    -224.750
  H      925.884    -722.267    -220.817
  H      917.749    -720.770    -223.534
  H      924.235    -722.312    -220.307
  H      917.567    -723.500    -222.774
  H      917.090    -724.077    -225.172
  H      916.141    -722.684    -224.577
  P      917.488    -720.489    -220.969
  C      916.256    -720.770    -218.689
  O      917.486    -720.850    -219.410
  O      916.041    -720.961    -221.473
  O      917.716    -719.047    -221.290
  H      915.451    -720.200    -221.544
  H      916.423    -721.040    -217.667
  H      915.544    -721.440    -219.123
  H      915.879    -719.770    -218.736

 6  7  8  9  10  11  12  13  14  15  26  29  33  34 0
 6-311+G(2d,p)
 ****
 36  38  39  40  41 0
 6-311+G(2d,p)
 ****
 1  2  3  4  5  16  17  18  19  20  21  22  23  24  25 0
 3-21G
 ****
 27  28  30  31  32  35  37  42  43  44  45  46  47 0
 3-21G
 ****
 48  49 0
 3-21G
 ****


