%nproc=1
%NoSave
%Mem=1900MB
#P OB98/GEN NMR

erre ene a

0 1
  C       91.486    -334.775     191.884
  O       91.156    -334.105     193.086
  H       90.879    -335.678     191.794
  H       91.262    -334.114     191.042
  H       92.547    -335.033     191.861
  P       91.675    -334.758     194.454
  C       93.899    -333.418     194.477
  O       93.281    -334.695     194.407
  C       94.992    -333.409     195.543
  O       96.061    -334.300     195.117
  C       95.610    -332.026     195.807
  O       95.859    -331.902     197.212
  C       96.936    -332.093     195.073
  O       97.908    -331.207     195.615
  C       97.292    -333.566     195.235
  N      102.087    -332.945     193.661
  C      101.473    -332.643     194.824
  N      100.198    -332.894     195.184
  C       99.560    -333.584     194.223
  C      100.055    -333.970     192.988
  C      101.384    -333.605     192.711
  N      101.997    -333.846     191.503
  N       99.074    -334.610     192.255
  C       98.003    -334.592     193.024
  N       98.247    -333.977     194.224
  O       91.354    -336.313     194.236
  O       91.048    -334.229     195.701
  H       97.842    -331.222     196.588
  H       90.446    -336.503     194.528
  H      102.082    -332.121     195.562
  H       97.031    -334.970     192.754
  H       97.734    -333.788     196.216
  H       96.783    -331.838     194.019
  H       94.985    -331.192     195.469
  H       94.577    -333.830     196.470
  H       93.141    -332.669     194.740
  H      102.915    -333.455     191.352
  H      101.452    -334.236     190.747
  H       94.319    -333.165     193.498
  P       94.920    -330.900     198.043
  C       93.630    -332.578     199.560
  O       93.584    -331.683     198.457
  O       94.417    -329.864     196.936
  O       95.623    -330.209     199.166
  H       94.292    -328.986     197.326
  H       92.665    -333.016     199.704
  H       93.914    -332.043     200.442
  H       94.346    -333.349     199.364

 6  7  8  9  10  11  12  13  14  15  25  28  32  33  34  35 0
 6-311+G(2d,p)
 ****
 36  39  40 0
 6-311+G(2d,p)
 ****
 1  2  3  4  5  16  17  18  19  20  21  22  23  24 0
 3-21G
 ****
 26  27  29  30  31  37  38  41  42  43  44  45  46  47 0
 3-21G
 ****
 48 0
 3-21G
 ****


