%nproc=1
%NoSave
%Mem=1900MB
#P OB98/GEN NMR

erre ene a

0 1
  C     -105.541     -72.425    -293.838
  O     -104.843     -73.503    -293.202
  P     -105.464     -74.082    -291.840
  C     -107.244     -75.853    -291.155
  O     -106.606     -75.145    -292.210
  C     -108.327     -76.782    -291.718
  O     -109.290     -76.042    -292.497
  C     -107.774     -77.834    -292.662
  O     -107.173     -78.890    -291.929
  C     -109.017     -78.257    -293.438
  O     -109.702     -79.345    -292.792
  C     -109.883     -76.975    -293.423
  N     -110.034     -76.386    -294.741
  C     -111.355     -76.189    -295.175
  O     -112.304     -76.526    -294.460
  N     -111.563     -75.635    -296.413
  C     -110.548     -75.336    -297.166
  N     -110.817     -74.797    -298.388
  C     -109.143     -75.554    -296.756
  C     -108.960     -76.082    -295.548
  O     -106.288     -72.840    -291.257
  O     -104.437     -74.563    -290.869
  H     -109.171     -80.146    -292.995
  H     -106.277     -72.850    -290.283
  H     -108.330     -75.290    -297.421
  H     -107.966     -76.277    -295.167
  H     -110.893     -77.196    -293.038
  H     -108.767     -78.594    -294.444
  H     -107.046     -77.384    -293.351
  H     -108.846     -77.261    -290.877
  H     -111.792     -74.661    -298.633
  H     -107.694     -75.147    -290.447
  H     -110.104     -74.532    -299.051
  H     -106.493     -76.421    -290.595
  P     -105.630     -79.223    -292.230
  C     -103.941     -77.293    -292.288
  O     -104.805     -78.069    -291.480
  O     -105.490     -78.789    -293.768
  O     -105.175     -80.628    -292.001
  H     -104.604     -79.030    -294.102
  H     -103.602     -76.430    -291.710
  H     -104.456     -76.937    -293.185
  H     -103.063     -77.887    -292.572
  H     -105.021     -72.140    -294.729
  H     -105.591     -71.590    -293.171
  H     -106.532     -72.741    -294.089

 3  4  5  6  7  8  9  10  11  12  13  21  23  27  28  29  30  32 0
 6-311+G(2d,p)
 ****
 34  35 0
 6-311+G(2d,p)
 ****
 1  2  14  15  16  17  18  19  20  22  24  25  26 0
 3-21G
 ****
 31  33  36  37  38  39  40  41  42  43  44  45  46 0
 3-21G
 ****


