%nproc=1
%NoSave
%Mem=1900MB
#P OB98/GEN NMR

erre ene a

0 1
  C      436.599     411.055    -230.530
  O      437.225     409.872    -230.089
  H      435.870     411.375    -229.781
  H      436.075     410.879    -231.475
  H      437.337     411.859    -230.658
  P      438.457     409.288    -230.925
  C      438.744     409.169    -233.490
  O      437.893     408.900    -232.384
  C      437.914     409.687    -234.660
  O      437.087     410.801    -234.241
  C      438.749     410.208    -235.828
  O      439.321     409.155    -236.580
  C      437.721     411.054    -236.561
  O      436.903     410.235    -237.409
  C      436.882     411.640    -235.405
  N      437.253     413.035    -235.120
  C      437.053     413.940    -236.152
  O      436.594     413.634    -237.245
  N      437.463     415.217    -235.901
  C      438.167     415.636    -234.803
  O      438.724     416.727    -234.731
  C      438.288     414.652    -233.722
  C      437.842     413.407    -233.920
  O      439.254     408.222    -230.252
  O      439.353     410.584    -231.227
  H      440.114     410.596    -230.613
  H      436.243     410.841    -237.810
  H      437.364     415.882    -236.665
  H      438.770     414.958    -232.794
  H      437.957     412.653    -233.152
  H      435.815     411.601    -235.638
  H      438.200     411.814    -237.188
  H      439.538     410.877    -235.440
  H      437.247     408.881    -234.997
  H      439.252     408.249    -233.776
  H      439.492     409.912    -233.192
  P      440.400     409.480    -237.725
  C      440.529     411.162    -239.661
  O      439.674     410.345    -238.865
  O      441.161     408.296    -238.231
  O      441.385     410.538    -237.046
  H      442.320     410.241    -237.183
  H      439.945     411.691    -240.384
  H      441.245     410.546    -240.163
  H      441.039     411.862    -239.033

 6  7  8  9  10  11  12  13  14  15  16  27  31  32  33  34  35 0
 6-311+G(2d,p)
 ****
 36  37 0
 6-311+G(2d,p)
 ****
 1  2  3  4  5  17  18  19  20  21  22  23  24  25 0
 3-21G
 ****
 26  28  29  30  38  39  40  41  42  43  44  45 0
 3-21G
 ****


