%nproc=1
%NoSave
%Mem=1900MB
#P OB98/GEN NMR

erre ene a

0 1
  C      274.536     214.106    -257.228
  O      275.859     214.261    -257.711
  P      276.764     212.940    -257.845
  C      275.448     211.934    -259.851
  O      275.820     211.811    -258.485
  C      275.850     210.681    -260.623
  O      277.280     210.496    -260.588
  C      275.265     209.390    -260.064
  O      273.928     209.177    -260.484
  C      276.190     208.357    -260.689
  O      275.796     208.105    -262.050
  C      277.546     209.073    -260.648
  N      279.863     205.197    -258.370
  C      279.293     205.270    -259.625
  N      279.289     204.131    -260.350
  N      278.776     206.361    -260.126
  C      278.845     207.422    -259.282
  C      279.386     207.471    -258.018
  C      279.944     206.252    -257.472
  O      280.415     206.112    -256.350
  N      279.277     208.725    -257.477
  C      278.672     209.433    -258.408
  N      278.349     208.677    -259.507
  O      276.936     212.456    -256.329
  O      278.074     213.149    -258.522
  H      274.891     207.735    -262.015
  H      277.682     211.828    -256.261
  H      280.244     204.330    -258.026
  H      278.433     210.486    -258.328
  H      278.132     208.889    -261.554
  H      276.166     207.395    -260.168
  H      279.614     203.243    -259.997
  H      275.361     209.351    -258.972
  H      278.822     204.140    -261.249
  H      275.552     210.817    -261.670
  H      275.946     212.805    -260.283
  H      274.365     212.089    -259.917
  P      273.021     208.236    -259.551
  C      272.359     209.867    -257.639
  O      273.197     208.812    -258.066
  O      273.832     206.857    -259.531
  O      271.618     208.063    -260.029
  H      273.227     206.110    -259.365
  H      272.427     209.949    -256.550
  H      271.317     209.675    -257.910
  H      272.689     210.808    -258.085
  H      274.055     215.061    -257.192
  H      274.562     213.682    -256.246
  H      273.991     213.457    -257.882

 3  4  5  6  7  8  9  10  11  12  23  26  30  31 0
 6-311+G(2d,p)
 ****
 33  35  36  37  38 0
 6-311+G(2d,p)
 ****
 1  2  13  14  15  16  17  18  19  20  21  22  24  25 0
 3-21G
 ****
 27  28  29  32  34  39  40  41  42  43  44  45  46  47  48  49 0
 3-21G
 ****


