%nproc=1
%NoSave
%Mem=1900MB
#P OB98/GEN NMR

erre ene a

0 1
  C      107.730     245.828    -197.642
  O      106.438     246.420    -197.788
  P      105.137     245.490    -197.767
  C      104.145     246.027    -200.094
  O      104.770     245.055    -199.265
  C      104.266     245.620    -201.565
  O      104.057     244.199    -201.740
  C      103.217     246.277    -202.452
  O      103.342     247.668    -202.663
  C      103.225     245.383    -203.679
  O      104.276     245.734    -204.578
  C      103.487     243.994    -203.051
  N      102.281     243.169    -202.984
  C      101.960     242.461    -204.138
  O      102.605     242.540    -205.181
  N      100.838     241.680    -204.065
  C      100.008     241.567    -202.988
  O       99.002     240.869    -202.985
  C      100.387     242.357    -201.806
  C      101.487     243.109    -201.856
  O      103.994     245.993    -196.953
  O      105.698     244.117    -197.143
  H      104.057     245.350    -205.449
  H      105.024     243.775    -196.523
  H      100.594     241.152    -204.889
  H       99.748     242.297    -200.935
  H      101.784     243.700    -200.996
  H      104.235     243.444    -203.636
  H      102.288     245.459    -204.239
  H      102.237     246.141    -201.970
  H      105.278     245.847    -201.908
  H      104.606     247.004    -199.932
  H      103.097     246.128    -199.795
  P      102.513     248.761    -201.836
  C      101.104     249.546    -203.865
  O      101.106     248.992    -202.568
  O      103.249     249.974    -201.372
  O      102.070     247.911    -200.544
  H      102.037     248.511    -199.776
  H      100.068     249.646    -204.199
  H      101.635     248.892    -204.561
  H      101.565     250.536    -203.857
  H      108.479     246.592    -197.679
  H      107.894     245.129    -198.435
  H      107.785     245.320    -196.702

 3  4  5  6  7  8  9  10  11  12  13  23  28  29  30  31  32 0
 6-311+G(2d,p)
 ****
 33  34 0
 6-311+G(2d,p)
 ****
 1  2  14  15  16  17  18  19  20  21  22  24  25  26  27 0
 3-21G
 ****
 35  36  37  38  39  40  41  42  43  44  45 0
 3-21G
 ****


