%nproc=1
%NoSave
%Mem=1900MB
#P OB98/GEN NMR

erre ene a

0 1
  C     -848.131    -773.580    1325.961
  O     -847.512    -774.842    1326.184
  P     -846.489    -775.575    1325.206
  C     -848.188    -776.986    1323.727
  O     -847.152    -776.946    1324.705
  C     -848.510    -778.417    1323.297
  O     -847.350    -779.010    1322.661
  C     -848.867    -779.330    1324.486
  O     -849.965    -780.197    1324.254
  C     -847.539    -779.988    1324.850
  O     -847.654    -781.163    1325.591
  C     -846.910    -780.118    1323.450
  N     -842.745    -782.789    1324.819
  C     -844.074    -783.013    1325.121
  N     -844.329    -784.098    1325.913
  N     -845.064    -782.258    1324.711
  C     -844.633    -781.179    1324.012
  C     -843.366    -780.850    1323.646
  C     -842.291    -781.721    1324.052
  O     -841.090    -781.572    1323.816
  N     -843.342    -779.680    1322.901
  C     -844.598    -779.319    1322.829
  N     -845.442    -780.214    1323.495
  O     -845.084    -775.637    1325.659
  O     -846.542    -774.674    1323.855
  H     -848.046    -781.866    1324.987
  H     -845.648    -774.732    1323.464
  H     -842.025    -783.408    1325.126
  H     -844.972    -778.437    1322.321
  H     -847.206    -781.046    1322.945
  H     -846.946    -779.262    1325.449
  H     -843.616    -784.646    1326.373
  H     -849.210    -778.728    1325.362
  H     -845.281    -784.106    1326.325
  H     -849.346    -778.375    1322.565
  H     -847.796    -776.411    1322.869
  H     -849.079    -776.466    1324.115
  P     -851.466    -780.121    1324.830
  C     -851.691    -782.517    1325.730
  O     -852.156    -781.531    1324.741
  O     -852.292    -779.249    1323.723
  O     -851.577    -779.437    1326.191
  H     -852.608    -778.420    1324.128
  H     -852.033    -783.513    1325.393
  H     -852.149    -782.268    1326.691
  H     -850.603    -782.497    1325.807
  H     -848.767    -773.344    1326.788
  H     -848.713    -773.622    1325.064
  H     -847.378    -772.826    1325.863

 3  4  5  6  7  8  9  10  11  12  23  26  30  31 0
 6-311+G(2d,p)
 ****
 33  35  36  37  38 0
 6-311+G(2d,p)
 ****
 1  2  13  14  15  16  17  18  19  20  21  22  24  25 0
 3-21G
 ****
 27  28  29  32  34  39  40  41  42  43  44  45  46  47  48  49 0
 3-21G
 ****


