%nproc=1
%NoSave
%Mem=1900MB
#P OB98/GEN NMR

erre ene a

0 1
  C      150.267    -132.111      72.303
  O      149.588    -131.009      71.731
  H      151.345    -131.969      72.199
  H      150.020    -132.161      73.366
  H      149.964    -133.047      71.823
  P      149.559    -130.915      70.129
  C      148.181    -129.544      68.404
  O      148.549    -129.717      69.765
  C      147.283    -128.318      68.240
  O      145.898    -128.735      68.428
  C      147.572    -127.184      69.240
  O      147.424    -125.933      68.558
  C      146.448    -127.328      70.259
  O      146.161    -126.105      70.928
  C      145.310    -127.830      69.381
  N      141.198    -127.025      72.265
  C      141.842    -126.241      71.378
  N      142.906    -126.553      70.607
  C      143.253    -127.845      70.771
  C      142.679    -128.769      71.633
  C      141.614    -128.304      72.425
  N      140.994    -129.076      73.382
  N      143.352    -129.973      71.555
  C      144.321    -129.773      70.684
  N      144.300    -128.500      70.186
  O      148.737    -132.233      69.724
  O      150.891    -130.857      69.463
  H      145.341    -126.216      71.448
  H      149.352    -132.984      69.635
  H      141.469    -125.227      71.279
  H      145.076    -130.497      70.403
  H      144.811    -127.027      68.827
  H      146.732    -128.073      71.010
  H      148.562    -127.243      69.697
  H      147.370    -127.958      67.209
  H      147.637    -130.433      68.069
  H      140.306    -128.630      73.973
  H      141.362    -129.992      73.588
  H      149.083    -129.435      67.794
  P      148.766    -125.150      68.162
  C      149.413    -122.746      67.381
  O      148.382    -123.636      67.792
  O      149.160    -125.784      66.748
  O      149.866    -125.290      69.165
  H      150.130    -125.801      66.647
  H      148.992    -121.784      67.173
  H      149.883    -123.128      66.499
  H      150.139    -122.656      68.162

 6  7  8  9  10  11  12  13  14  15  25  28  32  33  34  35 0
 6-311+G(2d,p)
 ****
 36  39  40 0
 6-311+G(2d,p)
 ****
 1  2  3  4  5  16  17  18  19  20  21  22  23  24 0
 3-21G
 ****
 26  27  29  30  31  37  38  41  42  43  44  45  46  47 0
 3-21G
 ****
 48 0
 3-21G
 ****


