%nproc=1
%NoSave
%Mem=1900MB
#P OB98/GEN NMR

erre ene a

0 1
  C     -134.077    -109.735    -156.187
  O     -134.798    -108.748    -156.896
  P     -134.061    -107.477    -157.535
  C     -133.575    -105.065    -156.818
  O     -133.851    -106.389    -156.379
  C     -133.250    -104.143    -155.642
  O     -132.216    -104.751    -154.826
  C     -132.765    -102.746    -156.054
  O     -133.319    -101.812    -155.123
  C     -131.261    -102.844    -155.881
  O     -130.652    -101.569    -155.722
  C     -131.171    -103.770    -154.663
  N     -129.864    -104.399    -154.538
  C     -128.809    -103.582    -154.128
  O     -128.972    -102.364    -154.015
  N     -127.592    -104.168    -153.871
  C     -127.401    -105.412    -154.180
  N     -126.204    -105.969    -153.846
  C     -128.429    -106.239    -154.849
  C     -129.635    -105.689    -154.958
  O     -134.685    -106.945    -158.782
  O     -132.568    -107.994    -157.818
  H     -132.343    -107.818    -158.752
  H     -130.755    -101.063    -156.554
  H     -128.184    -107.229    -155.204
  H     -130.462    -106.226    -155.409
  H     -131.386    -103.214    -153.740
  H     -130.819    -103.326    -156.763
  H     -133.074    -102.473    -157.067
  H     -134.151    -104.060    -155.015
  H     -125.542    -105.384    -153.351
  H     -134.461    -104.687    -157.330
  H     -126.084    -106.975    -153.754
  H     -132.748    -105.077    -157.537
  P     -133.523    -100.289    -155.599
  C     -132.019     -98.187    -155.350
  O     -132.089     -99.576    -155.599
  O     -134.223     -99.639    -154.303
  O     -134.389    -100.078    -156.799
  H     -134.747     -98.862    -154.582
  H     -130.982     -97.863    -155.457
  H     -132.356     -97.965    -154.332
  H     -132.634     -97.639    -156.071
  H     -134.751    -110.492    -155.845
  H     -133.589    -109.286    -155.347
  H     -133.345    -110.174    -156.832

 3  4  5  6  7  8  9  10  11  12  13  24  27  28  29  30  32 0
 6-311+G(2d,p)
 ****
 34  35 0
 6-311+G(2d,p)
 ****
 1  2  14  15  16  17  18  19  20  21  22  23  25  26 0
 3-21G
 ****
 31  33  36  37  38  39  40  41  42  43  44  45  46 0
 3-21G
 ****


