%nproc=1
%NoSave
%Mem=1900MB
#P OB98/GEN NMR

erre ene a

0 1
  C      938.915    1854.148    -893.840
  O      937.659    1854.714    -894.130
  P      937.049    1855.774    -893.090
  C      936.166    1857.414    -894.920
  O      935.853    1856.535    -893.860
  C      935.123    1857.331    -896.010
  O      933.819    1857.682    -895.490
  C      935.364    1858.239    -897.170
  O      936.387    1857.738    -898.050
  C      933.994    1858.310    -897.830
  O      933.799    1857.218    -898.750
  C      933.051    1858.155    -896.610
  N      932.357    1859.403    -896.270
  C      931.140    1859.604    -896.950
  O      930.723    1858.801    -897.770
  N      930.465    1860.773    -896.720
  C      930.956    1861.659    -895.870
  N      930.205    1862.787    -895.670
  C      932.219    1861.465    -895.170
  C      932.857    1860.344    -895.410
  O      938.192    1856.901    -893.000
  O      936.704    1855.182    -891.720
  H      934.036    1856.408    -898.270
  H      938.177    1857.355    -892.150
  H      932.597    1862.249    -894.480
  H      933.833    1860.135    -894.950
  H      932.295    1857.379    -896.810
  H      933.826    1859.224    -898.390
  H      935.640    1859.267    -896.830
  H      935.074    1856.285    -896.350
  H      929.344    1862.898    -896.190
  H      937.164    1857.136    -895.340
  H      930.473    1863.497    -895.010
  H      936.239    1858.440    -894.500
  P      937.378    1858.788    -898.730
  C      938.897    1856.772    -899.190
  O      938.253    1857.893    -899.730
  O      938.427    1859.074    -897.570
  O      936.807    1860.038    -899.300
  H      939.053    1859.776    -897.820
  H      939.322    1856.162    -900.000
  H      938.180    1856.152    -898.640
  H      939.720    1857.057    -898.560
  H      939.187    1853.466    -894.618
  H      938.864    1853.624    -892.909
  H      939.649    1854.924    -893.773

 3  4  5  6  7  8  9  10  11  12  13  21  23  27  28  29  30  32 0
 6-311+G(2d,p)
 ****
 34  35 0
 6-311+G(2d,p)
 ****
 1  2  14  15  16  17  18  19  20  22  24  25  26 0
 3-21G
 ****
 31  33  36  37  38  39  40  41  42  43  44  45  46 0
 3-21G
 ****


