%nproc=1
%NoSave
%Mem=1900MB
#P OB98/GEN NMR

erre ene a

0 1
  C      220.835    -439.605     119.270
  O      220.766    -438.497     120.170
  P      221.689    -438.485     121.477
  C      222.000    -435.916     121.486
  O      221.557    -437.062     122.204
  C      220.831    -434.952     121.261
  O      219.851    -435.514     120.355
  C      220.052    -434.657     122.537
  O      220.711    -433.880     123.518
  C      218.735    -434.129     121.997
  O      218.820    -432.742     121.666
  C      218.557    -434.982     120.719
  N      217.571    -436.049     120.884
  C      216.307    -435.799     120.361
  O      215.995    -434.738     119.823
  N      215.390    -436.806     120.507
  C      215.601    -437.994     121.141
  O      214.737    -438.853     121.264
  C      216.949    -438.191     121.698
  C      217.857    -437.225     121.548
  O      223.083    -438.977     121.289
  O      220.891    -439.454     122.480
  H      219.164    -432.275     122.451
  H      221.547    -440.008     122.946
  H      214.472    -436.646     120.127
  H      217.148    -439.121     122.216
  H      218.857    -437.349     121.949
  H      218.231    -434.353     119.881
  H      217.928    -434.233     122.727
  H      219.831    -435.616     123.025
  H      221.214    -434.038     120.805
  H      222.431    -436.222     120.530
  H      222.808    -435.434     122.048
  P      221.409    -434.511     124.815
  C      223.833    -433.661     124.461
  O      222.650    -433.578     125.224
  O      221.626    -435.984     124.829
  O      220.337    -434.144     125.958
  H      220.347    -434.856     126.627
  H      224.571    -432.975     124.888
  H      223.641    -433.368     123.426
  H      224.239    -434.673     124.494
  H      220.156    -439.448     118.458
  H      220.569    -440.503     119.788
  H      221.831    -439.694     118.890

 3  4  5  6  7  8  9  10  11  12  13  23  28  29  30  31  32 0
 6-311+G(2d,p)
 ****
 33  34 0
 6-311+G(2d,p)
 ****
 1  2  14  15  16  17  18  19  20  21  22  24  25  26  27 0
 3-21G
 ****
 35  36  37  38  39  40  41  42  43  44  45 0
 3-21G
 ****


