%nproc=1
%NoSave
%Mem=1900MB
#P OB98/GEN NMR

erre ene a

0 1
  C      290.718    -889.530     -64.316
  O      290.675    -890.200     -63.063
  P      291.419    -891.600     -62.850
  C      289.946    -892.880     -64.539
  O      290.366    -892.770     -63.188
  C      289.592    -894.320     -64.881
  O      290.756    -895.170     -64.777
  C      288.564    -894.950     -63.959
  O      287.259    -894.450     -64.196
  C      288.742    -896.430     -64.259
  O      288.049    -896.790     -65.464
  C      290.269    -896.500     -64.466
  N      290.968    -897.100     -63.327
  C      291.002    -898.490     -63.287
  O      290.382    -899.160     -64.105
  N      291.719    -899.100     -62.275
  C      292.237    -898.370     -61.330
  N      292.972    -899.000     -60.382
  C      292.087    -896.900     -61.280
  C      291.461    -896.330     -62.306
  O      292.143    -891.760     -61.570
  O      292.428    -891.690     -64.101
  H      293.318    -891.920     -63.769
  H      288.513    -896.330     -66.199
  H      292.460    -896.350     -60.424
  H      291.330    -895.240     -62.340
  H      290.508    -897.110     -65.365
  H      288.368    -897.070     -63.457
  H      288.841    -894.750     -62.910
  H      289.254    -894.350     -65.927
  H      293.075    -900.000     -60.478
  H      290.764    -892.540     -65.190
  H      293.668    -898.520     -59.824
  H      289.084    -892.220     -64.695
  P      286.532    -893.700     -62.967
  C      285.442    -895.890     -62.052
  O      285.236    -894.600     -62.574
  O      285.909    -892.400     -63.637
  O      287.422    -893.370     -61.821
  H      285.956    -891.650     -62.997
  H      284.522    -896.180     -61.530
  H      286.270    -895.890     -61.331
  H      285.647    -896.570     -62.868
  H      290.163    -888.618     -64.252
  H      290.289    -890.156     -65.070
  H      291.734    -889.312     -64.569

 3  4  5  6  7  8  9  10  11  12  13  24  27  28  29  30  32 0
 6-311+G(2d,p)
 ****
 34  35 0
 6-311+G(2d,p)
 ****
 1  2  14  15  16  17  18  19  20  21  22  23  25  26 0
 3-21G
 ****
 31  33  36  37  38  39  40  41  42  43  44  45  46 0
 3-21G
 ****


