%nproc=1
%NoSave
%Mem=1900MB
#P OB98/GEN NMR

erre ene a

0 1
  C      244.396    -270.396     178.158
  O      245.399    -271.378     178.357
  P      244.990    -272.711     179.144
  C      245.978    -271.912     181.424
  O      244.829    -272.323     180.689
  C      245.541    -271.221     182.719
  O      244.599    -270.162     182.433
  C      244.828    -272.151     183.691
  O      245.752    -272.961     184.406
  C      244.087    -271.154     184.574
  O      244.945    -270.638     185.604
  C      243.717    -270.051     183.565
  N      242.312    -270.099     183.170
  C      241.419    -269.400     183.982
  O      241.779    -268.796     184.993
  N      240.101    -269.461     183.614
  C      239.590    -270.180     182.570
  O      238.390    -270.237     182.330
  C      240.574    -270.919     181.763
  C      241.868    -270.850     182.097
  O      246.324    -273.596     179.109
  O      243.824    -273.443     178.563
  H      244.518    -269.827     185.949
  H      246.094    -274.543     179.033
  H      239.447    -268.941     184.174
  H      240.203    -271.497     180.923
  H      242.605    -271.401     181.521
  H      243.915    -269.063     184.002
  H      243.224    -271.611     185.076
  H      244.097    -272.768     183.159
  H      246.428    -270.775     183.189
  H      246.562    -271.220     180.812
  H      246.592    -272.788     181.643
  P      245.172    -274.282     185.105
  C      245.155    -273.074     187.426
  O      244.427    -273.756     186.431
  O      246.520    -274.966     185.628
  O      244.357    -275.126     184.179
  H      247.192    -274.308     185.869
  H      245.942    -272.446     186.993
  H      245.610    -273.802     188.107
  H      244.468    -272.440     187.994
  H      244.810    -269.567     177.622
  H      244.031    -270.061     179.107
  H      243.590    -270.818     177.595

 3  4  5  6  7  8  9  10  11  12  13  23  28  29  30  31  32 0
 6-311+G(2d,p)
 ****
 33  34 0
 6-311+G(2d,p)
 ****
 1  2  14  15  16  17  18  19  20  21  22  24  25  26 0
 3-21G
 ****
 27  35  36  37  38  39  40  41  42  43  44  45 0
 3-21G
 ****


