%nproc=1
%NoSave
%Mem=1900MB
#P OB98/GEN NMR

erre ene a

0 1
  C     -567.083     241.814     -74.624
  O     -568.279     241.726     -75.371
  H     -566.254     241.459     -75.244
  H     -567.151     241.179     -73.736
  H     -566.889     242.850     -74.334
  P     -569.595     242.365     -74.705
  C     -570.858     240.064     -74.605
  O     -570.302     241.163     -73.908
  C     -571.466     239.055     -73.626
  O     -571.962     239.780     -72.467
  C     -572.633     238.255     -74.212
  O     -572.585     236.931     -73.669
  C     -573.856     238.976     -73.675
  O     -575.007     238.135     -73.651
  C     -573.352     239.441     -72.298
  N     -574.123     240.567     -71.775
  C     -574.683     240.408     -70.501
  O     -574.523     239.352     -69.878
  N     -575.437     241.425     -69.977
  C     -575.672     242.484     -70.681
  N     -576.445     243.444     -70.115
  C     -575.142     242.673     -72.048
  C     -574.375     241.692     -72.523
  O     -570.537     242.583     -75.980
  O     -569.340     243.600     -73.906
  H     -574.815     237.363     -73.073
  H     -570.546     241.824     -76.587
  H     -575.373     243.572     -72.606
  H     -573.941     241.752     -73.509
  H     -573.412     238.617     -71.570
  H     -574.089     239.843     -74.305
  H     -572.610     238.211     -75.306
  H     -570.670     238.395     -73.272
  H     -576.809     243.263     -69.188
  H     -570.089     239.569     -75.206
  H     -576.740     244.285     -70.596
  H     -571.625     240.444     -75.286
  P     -571.917     235.754     -74.517
  C     -574.168     234.776     -75.330
  O     -572.908     235.326     -75.702
  O     -571.343     234.625     -73.730
  O     -570.746     236.522     -75.320
  H     -569.959     235.944     -75.319
  H     -574.726     234.536     -76.211
  H     -574.711     235.491     -74.747
  H     -574.013     233.889     -74.752

 6  7  8  9  10  11  12  13  14  15  16  26  30  31  32  33  35 0
 6-311+G(2d,p)
 ****
 37  38 0
 6-311+G(2d,p)
 ****
 1  2  3  4  5  17  18  19  20  21  22  23  24  25 0
 3-21G
 ****
 27  28  29  34  36  39  40  41  42  43  44  45  46 0
 3-21G
 ****


