%nproc=1
%NoSave
%Mem=1900MB
#P OB98/GEN NMR

erre ene a

0 1
  C      100.930      -5.724     110.444
  O       99.835      -6.084     109.626
  H      100.573      -5.362     111.411
  H      101.554      -6.607     110.606
  H      101.531      -4.953     109.955
  P       98.787      -4.915     109.288
  C       98.797      -4.707     106.709
  O       98.158      -5.261     107.850
  C      100.176      -5.336     106.524
  O      100.039      -6.775     106.659
  C      100.822      -5.043     105.159
  O      102.162      -4.567     105.329
  C      100.872      -6.397     104.476
  O      102.019      -6.559     103.649
  C      100.869      -7.365     105.651
  N      102.138     -11.791     103.461
  C      102.894     -10.830     104.036
  N      102.488      -9.722     104.688
  C      101.146      -9.669     104.746
  C      100.246     -10.584     104.227
  C      100.792     -11.680     103.538
  N      100.022     -12.630     102.904
  N       98.945     -10.188     104.476
  C       99.059      -9.031     105.096
  N      100.370      -8.669     105.268
  O       99.730      -3.653     108.995
  O       97.807      -4.627     110.373
  H      102.800      -6.345     104.190
  H       99.527      -2.953     109.644
  H      103.969     -10.967     103.957
  H       98.236      -8.396     105.399
  H      101.873      -7.494     106.075
  H       99.976      -6.517     103.855
  H      100.251      -4.319     104.570
  H      100.829      -4.996     107.338
  H       98.913      -3.626     106.842
  H      100.494     -13.314     102.337
  H       99.022     -12.490     102.864
  H       98.173      -4.888     105.827
  P      102.542      -3.220     104.535
  C      104.671      -2.359     105.750
  O      104.136      -3.029     104.616
  O      101.963      -2.066     105.481
  O      101.959      -3.145     103.164
  H      101.343      -1.503     104.979
  H      105.736      -2.308     105.664
  H      104.410      -2.896     106.638
  H      104.269      -1.369     105.801

 6  7  8  9  10  11  12  13  14  15  25  28  32  33  34  35 0
 6-311+G(2d,p)
 ****
 36  39  40 0
 6-311+G(2d,p)
 ****
 1  2  3  4  5  16  17  18  19  20  21  22  23  24 0
 3-21G
 ****
 26  27  29  30  31  37  38  41  42  43  44  45  46  47  48 0
 3-21G
 ****


