%nproc=1
%NoSave
%Mem=1900MB
#P OB98/GEN NMR

erre ene a

0 1
  C      879.556    -899.080     796.442
  O      878.344    -898.750     795.804
  H      879.411    -900.000     797.020
  H      879.849    -898.280     797.129
  H      880.343    -899.240     795.699
  P      878.329    -897.410     794.918
  C      875.731    -897.440     794.803
  O      876.903    -896.750     795.233
  C      874.500    -896.910     795.545
  O      874.542    -897.300     796.921
  C      874.358    -895.390     795.510
  O      873.742    -894.980     794.310
  C      873.437    -895.180     796.708
  O      872.062    -895.440     796.329
  C      873.904    -896.240     797.713
  N      874.418    -894.130     802.377
  C      873.339    -894.290     801.567
  N      873.264    -894.820     800.318
  C      874.513    -895.200     799.917
  C      875.704    -895.080     800.611
  C      875.623    -894.530     801.899
  N      876.723    -894.350     802.710
  N      876.762    -895.590     799.876
  C      876.199    -896.030     798.759
  N      874.840    -895.790     798.724
  O      878.670    -897.580     793.472
  O      879.341    -896.490     795.753
  H      871.836    -894.780     795.635
  H      879.189    -896.610     796.711
  H      872.393    -893.960     801.980
  H      876.725    -896.560     797.971
  H      873.066    -896.700     798.230
  H      873.474    -894.160     797.091
  H      875.308    -894.890     795.699
  H      873.611    -897.400     795.091
  H      875.856    -898.510     794.992
  H      876.619    -893.780     803.524
  H      877.648    -894.530     802.315
  H      875.635    -897.280     793.713
  P      874.381    -893.810     793.400
  C      872.222    -894.160     792.047
  O      873.157    -893.220     792.558
  O      875.583    -894.230     792.612
  O      874.699    -892.640     794.450
  H      875.333    -892.000     794.057
  H      871.456    -893.644     791.506
  H      871.782    -894.702     792.858
  H      872.723    -894.842     791.392

 6  7  8  9  10  11  12  13  14  15  25  28  32  33  34  35 0
 6-311+G(2d,p)
 ****
 36  39  40 0
 6-311+G(2d,p)
 ****
 1  2  3  4  5  16  17  18  19  20  21  22  23  24 0
 3-21G
 ****
 26  27  29  30  31  37  38  41  42  43  44  45  46  47 0
 3-21G
 ****
 48 0
 3-21G
 ****


