%nproc=1
%NoSave
%Mem=1900MB
#P OB98/GEN NMR

erre ene a

0 1
  C     -891.740     958.259    -191.858
  O     -893.020     958.869    -191.868
  H     -891.620     957.679    -192.782
  H     -891.650     957.590    -190.996
  H     -890.940     959.023    -191.828
  P     -893.320     959.911    -190.687
  C     -894.910     961.182    -192.353
  O     -894.710     960.639    -191.045
  C     -896.380     961.628    -192.487
  O     -896.800     962.358    -191.330
  C     -896.590     962.616    -193.629
  O     -896.490     962.016    -194.918
  C     -897.990     963.124    -193.298
  O     -898.990     962.176    -193.709
  C     -897.910     963.205    -191.749
  N     -897.750     964.575    -191.277
  C     -898.920     965.347    -191.269
  O     -900.000     964.865    -191.640
  N     -898.840     966.667    -190.871
  C     -897.710     967.146    -190.492
  N     -897.680     968.456    -190.115
  C     -896.460     966.362    -190.431
  C     -896.540     965.099    -190.853
  O     -892.230     961.069    -190.945
  O     -893.300     959.336    -189.304
  H     -899.840     962.584    -193.482
  H     -892.250     961.418    -191.848
  H     -895.530     966.815    -190.104
  H     -895.690     964.451    -190.868
  H     -898.830     962.786    -191.296
  H     -898.210     964.072    -193.790
  H     -895.900     963.465    -193.540
  H     -896.990     960.748    -192.600
  H     -898.560     968.983    -190.177
  H     -894.670     960.442    -193.120
  H     -896.860     968.965    -189.829
  H     -894.240     962.037    -192.451
  P     -895.350     962.455    -195.931
  C     -896.210     960.561    -197.444
  O     -895.810     961.924    -197.375
  O     -893.940     962.078    -195.554
  O     -895.580     964.038    -196.080
  H     -896.440     964.296    -196.419
  H     -896.493     960.323    -198.448
  H     -897.042     960.400    -196.791
  H     -895.396     959.935    -197.145

 6  7  8  9  10  11  12  13  14  15  16  26  30  31  32  33  35 0
 6-311+G(2d,p)
 ****
 37  38 0
 6-311+G(2d,p)
 ****
 1  2  3  4  5  17  18  19  20  21  22  23  24  25 0
 3-21G
 ****
 27  28  29  34  36  39  40  41  42  43  44  45  46 0
 3-21G
 ****


