%nproc=1
%NoSave
%Mem=1900MB
#P OB98/GEN NMR

erre ene a

0 1
  C      263.090     971.021     340.098
  O      262.060     970.036     340.036
  P      261.204     969.690     338.728
  C      261.716     968.435     336.492
  O      262.205     969.156     337.603
  C      262.765     967.505     335.851
  O      263.910     968.299     335.399
  C      263.311     966.511     336.884
  O      262.609     965.312     337.149
  C      264.760     966.302     336.476
  O      264.940     965.162     335.640
  C      265.121     967.573     335.715
  N      269.878     968.280     337.470
  C      269.332     967.192     336.827
  N      270.165     966.117     336.649
  N      268.110     967.129     336.384
  C      267.373     968.234     336.697
  C      267.793     969.371     337.349
  C      269.163     969.428     337.778
  O      269.703     970.388     338.358
  N      266.761     970.257     337.496
  C      265.722     969.668     336.961
  N      266.045     968.429     336.449
  O      260.226     970.740     338.311
  O      260.364     968.386     339.157
  H      264.407     965.278     334.842
  H      259.510     968.430     338.681
  H      270.847     968.272     337.770
  H      264.721     970.079     336.890
  H      265.586     967.338     334.756
  H      265.388     966.121     337.367
  H      271.069     966.048     337.079
  H      263.351     967.042     337.842
  H      269.695     965.253     336.380
  H      262.371     967.016     334.961
  H      261.362     969.154     335.757
  H      260.852     967.821     336.788
  P      261.046     965.201     337.512
  C      259.075     966.419     336.418
  O      260.201     965.580     336.214
  O      260.780     966.440     338.494
  O      260.644     963.913     338.179
  H      259.947     966.322     338.981
  H      258.420     966.337     335.530
  H      259.398     967.453     336.548
  H      258.504     966.100     337.305
  H      263.498     971.049     341.087
  H      262.682     971.980     339.854
  H      263.862     970.774     339.400

 3  4  5  6  7  8  9  10  11  12  23  26  30  31 0
 6-311+G(2d,p)
 ****
 33  35  36  37  38 0
 6-311+G(2d,p)
 ****
 1  2  13  14  15  16  17  18  19  20  21  22  24  25 0
 3-21G
 ****
 27  28  29  32  34  39  40  41  42  43  44  45  46  47  48  49 0
 3-21G
 ****


