%nproc=1
%NoSave
%Mem=1900MB
#P OB98/GEN NMR

erre ene a

0 1
  C      327.388    -646.592      47.236
  O      327.919    -645.281      47.215
  H      328.104    -647.254      47.728
  H      327.222    -646.948      46.214
  H      326.446    -646.611      47.792
  P      327.001    -644.150      46.538
  C      328.705    -643.586      44.647
  O      328.009    -643.141      45.806
  C      329.535    -642.444      44.055
  O      328.627    -641.504      43.389
  C      330.322    -641.625      45.092
  O      331.494    -641.100      44.451
  C      329.357    -640.494      45.397
  O      329.999    -639.449      46.090
  C      328.845    -640.212      43.987
  N      326.724    -635.684      45.089
  C      328.000    -636.130      45.189
  N      328.487    -637.340      44.868
  C      327.520    -638.130      44.370
  C      326.178    -637.818      44.202
  C      325.786    -636.524      44.589
  N      324.490    -636.076      44.499
  N      325.490    -638.895      43.670
  C      326.396    -639.837      43.519
  N      327.633    -639.427      43.937
  O      326.471    -643.312      47.798
  O      325.882    -644.655      45.690
  H      329.390    -638.687      46.206
  H      325.589    -643.632      48.063
  H      328.717    -635.413      45.586
  H      326.213    -640.834      43.125
  H      329.599    -639.689      43.379
  H      328.539    -640.843      46.043
  H      330.619    -642.216      45.967
  H      330.192    -642.846      43.275
  H      327.972    -643.940      43.912
  H      329.374    -644.412      44.917
  H      324.286    -635.136      44.818
  H      323.773    -636.692      44.145
  P      332.801    -642.033      44.323
  C      334.006    -641.378      46.557
  O      334.001    -641.343      45.139
  O      333.244    -641.765      42.797
  O      332.592    -643.484      44.569
  H      333.718    -642.551      42.458
  H      334.875    -640.872      46.923
  H      334.019    -642.395      46.889
  H      333.128    -640.893      46.929

 6  7  8  9  10  11  12  13  14  15  25  28  32  33  34  35 0
 6-311+G(2d,p)
 ****
 36  37  40 0
 6-311+G(2d,p)
 ****
 1  2  3  4  5  16  17  18  19  20  21  22  23  24 0
 3-21G
 ****
 26  27  29  30  31  38  39 41  42  43  44  45  46  47  48 0
 3-21G
 ****


