%nproc=1
%NoSave
%Mem=1900MB
#P OB98/GEN NMR

erre ene a

0 1
  C      579.084    -628.818     921.841
  O      578.019    -629.619     921.312
  P      577.035    -628.906     920.262
  C      578.208    -629.485     918.013
  O      577.909    -628.489     918.985
  C      577.535    -629.168     916.685
  O      577.927    -627.866     916.206
  C      577.876    -630.126     915.556
  O      577.127    -631.326     915.645
  C      577.460    -629.317     914.339
  O      576.040    -629.450     914.120
  C      577.810    -627.884     914.758
  N      580.298    -626.748     910.487
  C      579.011    -627.222     910.662
  N      578.270    -627.391     909.542
  N      578.495    -627.494     911.830
  C      579.339    -627.262     912.862
  C      580.633    -626.800     912.805
  C      581.205    -626.521     911.507
  O      582.355    -626.136     911.290
  N      581.167    -626.673     914.066
  C      580.188    -627.025     914.877
  N      579.064    -627.406     914.191
  O      576.717    -627.498     920.963
  O      575.792    -629.678     919.975
  H      575.824    -628.919     913.331
  H      575.850    -627.165     920.672
  H      580.646    -626.558     909.563
  H      580.248    -627.021     915.957
  H      577.025    -627.174     914.498
  H      577.951    -629.658     913.415
  H      578.573    -627.124     908.615
  H      578.952    -630.332     915.526
  H      577.310    -627.688     909.658
  H      576.446    -629.152     916.856
  H      577.864    -630.461     918.370
  H      579.299    -629.555     917.898
  P      577.851    -632.689     915.201
  C      578.120    -634.028     917.412
  O      578.708    -633.151     916.468
  O      578.953    -632.185     914.160
  O      576.939    -633.717     914.617
  H      579.143    -632.887     913.501
  H      577.555    -634.818     916.910
  H      577.437    -633.456     918.067
  H      578.898    -634.474     918.023
  H      579.665    -629.402     922.524
  H      578.674    -627.973     922.354
  H      579.708    -628.481     921.040

 3  4  5  6  7  8  9  10  11  12  23  26  30  31  33  0
 6-311+G(2d,p)
 ****
 35  36  37  38 0
 6-311+G(2d,p)
 ****
 1  2  13  14  15  16  17  18  19  20  21  22  24  25  27  28  29 0
 3-21G
 ****
 32  34  39  40  41  42  43  44  45  46  47  48  49 0
 3-21G
 ****


