%nproc=1
%NoSave
%Mem=1900MB
#P OB98/GEN NMR

erre ene a

0 1
  C     -155.064    -486.719     150.526
  O     -154.542    -487.919     149.948
  P     -153.431    -488.712     150.811
  C     -155.039    -490.396     151.974
  O     -153.986    -490.199     151.044
  C     -156.004    -491.472     151.475
  O     -156.747    -491.015     150.334
  C     -155.328    -492.755     151.021
  O     -154.977    -493.585     152.119
  C     -156.435    -493.400     150.195
  O     -157.350    -494.098     151.064
  C     -157.115    -492.181     149.553
  N     -158.450    -492.737     144.696
  C     -159.121    -493.098     145.844
  N     -160.341    -493.664     145.676
  N     -158.648    -492.922     147.050
  C     -157.438    -492.315     147.070
  C     -156.667    -491.914     146.002
  C     -157.187    -492.144     144.666
  O     -156.616    -491.873     143.620
  N     -155.493    -491.331     146.416
  C     -155.569    -491.355     147.732
  N     -156.723    -491.955     148.172
  O     -153.560    -488.040     152.256
  O     -152.051    -488.604     150.260
  H     -158.063    -494.452     150.498
  H     -152.710    -488.110     152.735
  H     -158.856    -492.904     143.789
  H     -154.821    -490.948     148.406
  H     -158.211    -492.257     149.592
  H     -156.053    -494.136     149.479
  H     -160.796    -493.761     144.779
  H     -154.461    -492.542     150.380
  H     -160.866    -493.899     146.506
  H     -156.716    -491.692     152.290
  H     -155.585    -489.457     152.119
  H     -154.607    -490.670     152.941
  P     -153.551    -494.323     152.059
  C     -152.647    -494.148     154.486
  O     -153.318    -494.939     153.528
  O     -152.514    -493.108     151.976
  O     -153.395    -495.270     150.913
  H     -151.707    -493.381     151.498
  H     -153.001    -493.117     154.463
  H     -151.568    -494.174     154.295
  H     -152.845    -494.565     155.472
  H     -155.786    -486.289     149.864
  H     -154.267    -486.023     150.685
  H     -155.530    -486.947     151.462

 3  4  5  6  7  8  9  10  11  12  23  26  30  31  33  0
 6-311+G(2d,p)
 ****
 35  36  37  38 0
 6-311+G(2d,p)
 ****
 1  2  13  14  15  16  17  18  19  20  21  22  24  25  27  28  29 0
 3-21G
 ****
 32  34  39  40  41  42  43  44  45  46  47  48  49 0
 3-21G
 ****


