%nproc=1
%NoSave
%Mem=1900MB
#P OB98/GEN NMR

erre ene a

0 1
  C     -173.771       5.387     356.470
  O     -174.172       4.468     355.478
  H     -173.470       4.835     357.362
  H     -174.607       6.042     356.732
  H     -172.925       5.986     356.122
  P     -174.510       5.053     354.021
  C     -176.950       5.272     354.880
  O     -175.882       5.874     354.161
  C     -177.966       6.330     355.315
  O     -178.516       6.964     354.129
  C     -179.129       5.769     356.133
  O     -179.465       6.710     357.156
  C     -180.266       5.685     355.129
  O     -181.552       5.737     355.747
  C     -179.949       6.868     354.205
  N     -180.551       6.693     352.887
  C     -181.724       7.411     352.629
  O     -182.204       8.143     353.497
  N     -182.350       7.243     351.421
  C     -181.902       6.369     350.578
  N     -182.587       6.226     349.411
  C     -180.710       5.540     350.835
  C     -180.087       5.756     351.992
  O     -174.944       3.755     353.193
  O     -173.403       5.807     353.362
  H     -181.665       4.932     356.292
  H     -174.701       3.840     352.251
  H     -180.388       4.803     350.113
  H     -179.205       5.190     352.273
  H     -180.325       7.809     354.640
  H     -180.198       4.741     354.574
  H     -178.910       4.799     356.588
  H     -177.432       7.112     355.877
  H     -183.412       6.802     349.282
  H     -176.549       4.779     355.770
  H     -182.356       5.546     348.706
  H     -177.434       4.517     354.247
  P     -178.615       6.631     358.514
  C     -180.223       4.750     359.302
  O     -178.879       5.202     359.188
  O     -179.370       7.656     359.482
  O     -177.178       6.998     358.339
  H     -178.827       8.461     359.611
  H     -180.237       3.787     359.769
  H     -180.660       4.680     358.328
  H     -180.783       5.442     359.895

 6  7  8  9  10  11  12  13  14  15  16  26  30  31  32  33  35 0
 6-311+G(2d,p)
 ****
 37  38 0
 6-311+G(2d,p)
 ****
 1  2  3  4  5  17  18  19  20  21  22  23  24  25 0
 3-21G
 ****
 27  28  29  34  36  39  40  41  42  43  44  45  46 0
 3-21G
 ****


