%nproc=1
%NoSave
%Mem=1900MB
#P OB98/GEN NMR

erre ene a

0 1
  C      -20.573     -33.667     117.827
  O      -21.659     -33.308     116.994
  H      -20.968     -34.145     118.728
  H      -19.998     -32.787     118.121
  H      -19.925     -34.379     117.310
  P      -21.364     -32.345     115.744
  C      -22.241     -30.341     117.111
  O      -21.147     -30.881     116.375
  C      -22.377     -28.837     116.877
  O      -21.135     -28.161     117.169
  C      -22.697     -28.457     115.440
  O      -23.972     -28.858     114.993
  C      -22.331     -26.981     115.417
  O      -23.374     -26.154     115.931
  C      -21.113     -26.954     116.374
  N      -19.851     -26.802     115.659
  C      -18.987     -25.831     116.148
  O      -19.250     -25.107     117.109
  N      -17.807     -25.687     115.471
  C      -17.438     -26.373     114.352
  O      -16.372     -26.183     113.778
  C      -18.410     -27.361     113.857
  C      -19.555     -27.531     114.525
  O      -22.381     -32.385     114.642
  O      -19.892     -32.760     115.278
  H      -23.615     -26.511     116.807
  H      -19.694     -32.415     114.373
  H      -17.159     -24.997     115.820
  H      -18.157     -27.915     112.964
  H      -20.288     -28.256     114.181
  H      -21.204     -26.117     117.080
  H      -22.104     -26.629     114.409
  H      -21.978     -28.964     114.782
  H      -23.134     -28.453     117.568
  H      -22.053     -30.525     118.174
  H      -23.165     -30.854     116.821
  P      -24.229     -29.630     113.623
  C      -25.046     -27.452     112.430
  O      -24.167     -28.570     112.422
  O      -25.334     -30.635     113.616
  O      -22.839     -30.431     113.434
  H      -23.054     -31.280     113.000
  H      -24.870     -26.853     111.561
  H      -24.870     -26.866     113.308
  H      -26.059     -27.795     112.427

 6  7  8  9  10  11  12  13  14  15  16  26  31  32  33  34  35 0
 6-311+G(2d,p)
 ****
 36  37 0
 6-311+G(2d,p)
 ****
 1  2  3  4  5  17  18  19  20  21  22  23  24  25 0
 3-21G
 ****
 27  28  29  30  38  39  40  41  42  43  44  45 0
 3-21G
 ****


