%nproc=1
%NoSave
%Mem=1900MB
#P OB98/GEN NMR

erre ene a

0 1
  C      515.645     453.494    -120.908
  O      515.314     454.385    -121.981
  P      516.426     454.964    -122.981
  C      515.110     455.278    -125.171
  O      516.073     454.494    -124.474
  C      513.705     454.677    -125.066
  O      513.262     454.655    -123.694
  C      512.631     455.435    -125.841
  O      512.695     455.119    -127.220
  C      511.365     454.969    -125.130
  O      510.961     453.678    -125.618
  C      511.839     454.866    -123.675
  N      508.094     458.068    -122.304
  C      508.098     456.962    -123.076
  N      509.137     456.165    -123.402
  C      510.264     456.595    -122.809
  C      510.417     457.708    -121.997
  C      509.260     458.470    -121.746
  N      509.264     459.602    -120.968
  N      511.729     457.849    -121.600
  C      512.356     456.825    -122.146
  N      511.515     456.041    -122.887
  O      517.834     454.676    -122.568
  O      516.160     456.543    -123.016
  H      511.698     453.061    -125.458
  H      516.991     457.012    -123.211
  H      507.134     456.680    -123.495
  H      513.409     456.609    -122.031
  H      511.399     454.000    -123.167
  H      510.523     455.651    -125.275
  H      512.754     456.513    -125.694
  H      513.759     453.637    -125.406
  H      515.407     455.332    -126.226
  H      508.400     460.111    -120.867
  H      510.138     459.935    -120.589
  H      515.116     456.290    -124.755
  P      513.674     455.937    -128.188
  C      515.367     454.336    -129.261
  O      515.091     455.189    -128.166
  O      513.729     457.409    -127.953
  O      513.121     455.600    -129.652
  H      513.307     456.352    -130.247
  H      514.860     453.379    -129.115
  H      516.446     454.164    -129.310
  H      515.035     454.786    -130.202
  H      514.756     453.235    -120.372
  H      516.334     453.974    -120.245
  H      516.092     452.607    -121.306

 3  4  5  6  7  8  9  10  11  12  22  25  29  30  31  32 0
 6-311+G(2d,p)
 ****
 33  36  37 0
 6-311+G(2d,p)
 ****
 1  2  13  14  15  16  17  18  19  20  21  23  24  26 0
 3-21G
 ****
 27  28  34  35  38  39  40  41  42  43  44  45  46  47  48 0
 3-21G
 ****


