%nproc=1
%NoSave
%Mem=1900MB
#P OB98/GEN NMR

erre ene a

0 1
  C      -71.140     658.788    -256.173
  O      -69.900     658.573    -255.537
  H      -71.721     657.862    -256.130
  H      -70.977     659.057    -257.220
  H      -71.709     659.580    -255.676
  P      -69.008     659.840    -255.137
  C      -68.735     661.150    -257.346
  O      -68.144     660.239    -256.432
  C      -67.781     661.481    -258.501
  O      -66.768     662.404    -258.034
  C      -67.050     660.215    -258.960
  O      -66.684     660.279    -260.337
  C      -65.783     660.223    -258.115
  O      -64.728     659.453    -258.677
  C      -65.500     661.724    -258.037
  N      -60.881     662.491    -256.020
  C      -61.222     661.964    -257.248
  N      -60.197     661.569    -258.036
  N      -62.457     661.819    -257.662
  C      -63.379     662.187    -256.738
  C      -63.169     662.702    -255.482
  C      -61.799     662.891    -255.049
  O      -61.437     663.336    -253.961
  N      -64.349     662.936    -254.825
  C      -65.279     662.562    -255.684
  N      -64.735     662.112    -256.866
  O      -67.897     659.230    -254.154
  O      -69.744     660.976    -254.493
  H      -64.978     658.519    -258.607
  H      -67.555     659.920    -253.563
  H      -59.918     662.596    -255.756
  H      -66.343     662.602    -255.509
  H      -64.937     662.056    -258.920
  H      -66.026     659.785    -257.142
  H      -59.248     661.495    -257.691
  H      -67.639     659.314    -258.792
  H      -60.426     660.926    -258.795
  H      -68.320     661.977    -259.307
  H      -68.975     662.059    -256.783
  H      -69.674     660.748    -257.728
  P      -67.599     659.478    -261.380
  C      -65.711     657.812    -262.121
  O      -66.629     658.830    -262.483
  O      -68.368     660.639    -262.174
  O      -68.539     658.515    -260.746
  H      -69.300     660.683    -261.881
  H      -65.156     657.508    -262.984
  H      -66.246     656.973    -261.727
  H      -65.038     658.186    -261.378

 6  7  8  9  10  11  12  13  14  15  26  29  33  34 0
 6-311+G(2d,p)
 ****
 36  38  39  40  41 0
 6-311+G(2d,p)
 ****
 1  2  3  4  5  16  17  18  19  20  21  22  23  24  25 0
 3-21G
 ****
 27  28  30  31  32  35  37  42  43  44  45  46  47 0
 3-21G
 ****
 48  49 0
 3-21G
 ****


