%nproc=1
%NoSave
%Mem=1900MB
#P OB98/GEN NMR

erre ene a

0 1
  C       43.194    -146.902       6.014
  O       42.585    -146.739       4.731
  P       42.804    -145.318       4.018
  C       43.565    -146.308       1.744
  O       43.905    -145.507       2.866
  C       44.624    -147.387       1.510
  O       44.728    -148.304       2.615
  C       44.351    -148.244       0.282
  O       44.749    -147.555      -0.891
  C       45.197    -149.477       0.569
  O       46.569    -149.276       0.171
  C       45.096    -149.607       2.097
  N       44.592    -154.199       4.183
  C       45.722    -153.562       3.706
  N       46.886    -154.234       3.826
  N       45.710    -152.372       3.164
  C       44.477    -151.817       3.112
  C       43.290    -152.337       3.576
  C       43.316    -153.656       4.170
  O       42.348    -154.252       4.626
  N       42.254    -151.453       3.403
  C       42.795    -150.459       2.722
  N       44.153    -150.601       2.577
  O       43.557    -144.456       5.137
  O       41.533    -144.667       3.587
  H       46.891    -148.440       0.554
  H       42.962    -143.763       5.477
  H       44.658    -155.119       4.583
  H       42.256    -149.607       2.338
  H       46.064    -149.867       2.542
  H       44.843    -150.351       0.017
  H       46.969    -155.151       4.235
  H       43.290    -148.518       0.241
  H       47.727    -153.781       3.490
  H       45.591    -146.879       1.399
  H       43.472    -145.684       0.854
  H       42.582    -146.758       1.917
  P       43.630    -146.740      -1.698
  C       44.956    -144.801      -2.799
  O       44.096    -145.211      -1.754
  O       42.389    -146.729      -0.685
  O       43.250    -147.344      -3.008
  H       41.568    -146.927      -1.174
  H       44.764    -143.748      -3.019
  H       44.798    -145.388      -3.708
  H       45.994    -144.912      -2.475
  H       42.981    -147.882       6.388
  H       42.804    -146.170       6.690
  H       44.253    -146.777       5.925

 3  4  5  6  7  8  9  10  11  12  23  26  30  31 0
 6-311+G(2d,p)
 ****
 33  35  36  37  38 0
 6-311+G(2d,p)
 ****
 1  2  13  14  15  16  17  18  19  20  21  22  24  25 0
 3-21G
 ****
 27  28  29  32  34  39  40  41  42  43  44  45  46  47  48  49 0
 3-21G
 ****


