%nproc=1
%NoSave
%Mem=1900MB
#P OB98/GEN NMR

erre ene a

0 1
  C       70.967    -243.960     -92.207
  O       71.219    -242.581     -92.364
  H       70.233    -244.268     -92.957
  H       70.554    -244.147     -91.212
  H       71.878    -244.551     -92.344
  P       72.545    -241.961     -91.718
  C       74.019    -243.109     -93.497
  O       73.776    -242.917     -92.111
  C       75.333    -242.460     -93.942
  O       76.441    -243.022     -93.203
  C       75.636    -242.716     -95.418
  O       75.016    -241.825     -96.327
  C       77.155    -242.563     -95.454
  O       77.530    -241.185     -95.610
  C       77.582    -243.084     -94.077
  N       81.395    -246.180     -95.488
  C       81.245    -244.828     -95.720
  N       82.202    -244.239     -96.470
  N       80.236    -244.128     -95.268
  C       79.308    -244.866     -94.615
  C       79.341    -246.216     -94.336
  C       80.490    -246.973     -94.794
  O       80.670    -248.176     -94.621
  N       78.221    -246.618     -93.649
  C       77.478    -245.529     -93.577
  N       78.107    -244.434     -94.127
  O       72.369    -242.250     -90.149
  O       72.761    -240.500     -91.974
  H       78.459    -241.149     -95.901
  H       72.867    -241.591     -89.633
  H       82.204    -246.663     -95.834
  H       76.496    -245.472     -93.120
  H       78.359    -242.451     -93.633
  H       77.597    -243.108     -96.296
  H       82.930    -244.759     -96.935
  H       75.388    -243.747     -95.684
  H       81.992    -243.327     -96.881
  H       75.302    -241.389     -93.712
  H       73.181    -242.654     -94.030
  H       74.018    -244.176     -93.739
  P       75.008    -242.155     -97.895
  C       73.459    -244.247     -97.753
  O       74.743    -243.730     -98.038
  O       76.546    -241.988     -98.298
  O       74.119    -241.285     -98.715
  H       76.703    -241.097     -98.670
  H       73.461    -245.307     -97.899
  H       72.741    -243.798     -98.407
  H       73.203    -244.027     -96.737

 6  7  8  9  10  11  12  13  14  15  26  29  33  34 0
 6-311+G(2d,p)
 ****
 36  38  39  40  41 0
 6-311+G(2d,p)
 ****
 1  2  3  4  5  16  17  18  19  20  21  22  23  24  25 0
 3-21G
 ****
 27  28  30  31  32  35  37  42  43  44  45  46  47 0
 3-21G
 ****
 48  49 0
 3-21G
 ****


