%nproc=1
%NoSave
%Mem=1900MB
#P OB98/GEN NMR

erre ene a

0 1
  C       19.870     121.499      13.274
  O       18.537     121.141      12.956
  P       17.873     121.759      11.633
  C       16.069     123.615      11.194
  O       16.884     122.923      12.120
  C       15.619     124.957      11.781
  O       14.654     124.708      12.841
  C       16.752     125.800      12.380
  O       16.437     127.175      12.128
  C       16.650     125.494      13.865
  O       17.247     126.495      14.672
  C       15.131     125.372      14.027
  N       14.732     124.633      15.225
  C       14.014     125.315      16.201
  O       13.715     126.505      16.126
  N       13.666     124.580      17.305
  C       14.014     123.285      17.552
  O       13.689     122.681      18.567
  C       14.813     122.630      16.507
  C       15.121     123.319      15.408
  O       16.896     120.573      11.195
  O       18.866     122.172      10.601
  H       16.503     120.106      11.951
  H       17.161     126.223      15.604
  H       13.112     125.045      18.010
  H       15.122     121.606      16.674
  H       15.710     122.858      14.624
  H       14.675     126.369      14.042
  H       17.153     124.543      14.075
  H       17.728     125.556      11.951
  H       15.099     125.519      10.995
  H       15.185     123.013      10.966
  H       16.625     123.764      10.263
  P       17.250     127.938      10.967
  C       18.567     130.194      10.818
  O       17.909     129.241      11.620
  O       16.027     128.543      10.119
  O       18.145     127.067      10.149
  H       15.369     128.991      10.673
  H       18.642     131.132      11.374
  H       18.021     130.381       9.890
  H       19.576     129.843      10.585
  H       20.165     121.008      14.178
  H       19.933     122.559      13.407
  H       20.519     121.200      12.478

 3  4  5  6  7  8  9  10  11  12  13  24  28  29  30  31  32 0
 6-311+G(2d,p)
 ****
 33  34 0
 6-311+G(2d,p)
 ****
 1  2  14  15  16  17  18  19  20  21  22  23  25  26  27 0
 3-21G
 ****
 35  36  37  38  39  40  41  42  43  44  45 0
 3-21G
 ****


