%nproc=1
%NoSave
%Mem=1900MB
#P OB98/GEN NMR

erre ene a

0 1
  C      391.148      29.261     256.828
  O      389.820      29.711     256.672
  H      391.559      29.699     257.745
  H      391.760      29.587     255.984
  H      391.184      28.172     256.916
  P      388.929      29.089     255.494
  C      389.026      31.068     253.846
  O      389.447      29.736     254.122
  C      388.515      31.161     252.409
  O      389.615      31.020     251.485
  C      387.524      30.066     252.035
  O      386.249      30.305     252.596
  C      387.584      30.132     250.518
  O      386.756      31.182     250.012
  C      389.079      30.446     250.272
  N      389.831      29.257     249.869
  C      389.774      28.922     248.522
  O      389.148      29.570     247.683
  N      390.424      27.767     248.169
  C      390.980      26.872     249.036
  O      391.324      25.743     248.705
  C      391.068      27.312     250.438
  C      390.483      28.461     250.788
  O      387.453      29.144     255.702
  O      389.449      27.577     255.391
  H      388.807      26.986     255.831
  H      385.835      30.870     250.117
  H      390.350      27.493     247.198
  H      391.564      26.660     251.143
  H      390.505      28.791     251.823
  H      389.184      31.208     249.486
  H      387.257      29.196     250.066
  H      387.907      29.096     252.365
  H      388.071      32.156     252.265
  H      389.881      31.740     253.974
  H      388.242      31.348     254.556
  P      385.256      29.085     252.898
  C      383.998      28.880     250.668
  O      384.982      28.306     251.527
  O      384.033      29.437     253.678
  O      386.165      28.042     253.716
  H      385.687      27.774     254.522
  H      383.899      28.280     249.788
  H      384.298      29.869     250.393
  H      383.059      28.921     251.179

 6  7  8  9  10  11  12  13  14  15  16  27  31  32  33  34  35 0
 6-311+G(2d,p)
 ****
 36  37 0
 6-311+G(2d,p)
 ****
 1  2  3  4  5  17  18  19  20  21  22  23  24  25 0
 3-21G
 ****
 26  28  29  30  38  39  40  41  42  43  44  45 0
 3-21G
 ****


