%nproc=1
%NoSave
%Mem=1900MB
#P OB98/GEN NMR

erre ene a

0 1
  C      684.694       1.232    -709.423
  O      684.009       2.161    -710.233
  H      684.564       1.517    -708.372
  H      685.758       1.246    -709.662
  H      684.291       0.224    -709.564
  P      683.894       1.811    -711.795
  C      685.547       1.926    -713.798
  O      685.230       2.372    -712.488
  C      686.833       2.578    -714.284
  O      687.973       2.008    -713.607
  C      687.098       2.414    -715.778
  O      686.386       3.372    -716.548
  C      688.596       2.668    -715.827
  O      688.851       4.084    -715.727
  C      689.076       1.956    -714.549
  N      692.824      -1.165    -715.954
  C      692.798       0.215    -715.883
  N      693.929       0.858    -716.236
  N      691.758       0.905    -715.491
  C      690.695       0.131    -715.177
  C      690.591      -1.244    -715.209
  C      691.756      -1.992    -715.626
  O      691.839      -3.217    -715.689
  N      689.359      -1.668    -714.804
  C      688.697      -0.555    -714.548
  N      689.459       0.564    -714.764
  O      682.759       2.814    -712.322
  O      683.555       0.390    -712.111
  H      688.468       4.495    -716.533
  H      682.233       2.358    -713.011
  H      693.644      -1.648    -716.272
  H      687.668      -0.504    -714.203
  H      689.932       2.456    -714.092
  H      689.054       2.319    -716.748
  H      694.752       0.389    -716.592
  H      686.892       1.388    -716.109
  H      693.944       1.865    -716.157
  H      686.795       3.645    -714.016
  H      684.726       2.189    -714.475
  H      685.655       0.838    -713.781
  P      686.353       3.165    -718.141
  C      688.177       2.564    -719.899
  O      687.887       3.090    -718.601
  O      685.878       4.599    -718.678
  O      685.470       2.059    -718.613
  H      685.476       4.507    -719.562
  H      689.235       2.578    -720.061
  H      687.694       3.163    -720.643
  H      687.819       1.558    -719.964

 6  7  8  9  10  11  12  13  14  15  26  29  33  34 0
 6-311+G(2d,p)
 ****
 36  38  39  40  41 0
 6-311+G(2d,p)
 ****
 1  2  3  4  5  16  17  18  19  20  21  22  23  24  25 0
 3-21G
 ****
 27  28  30  31  32  35  37  42  43  44  45  46  47 0
 3-21G
 ****
 48  49 0
 3-21G
 ****


