%nproc=1
%NoSave
%Mem=1900MB
#P OB98/GEN NMR

erre ene a

0 1
  C      -87.807     142.041    -143.955
  O      -87.725     143.451    -143.765
  P      -86.843     144.168    -142.645
  C      -85.269     145.248    -144.442
  O      -86.113     145.424    -143.314
  C      -84.842     146.576    -145.090
  O      -83.872     146.313    -146.138
  C      -86.036     147.254    -145.764
  O      -86.926     148.047    -145.003
  C      -85.443     147.971    -146.968
  O      -85.125     149.335    -146.692
  C      -84.167     147.174    -147.258
  N      -84.861     147.177    -152.326
  C      -84.932     148.229    -151.436
  N      -85.279     149.429    -151.946
  N      -84.699     148.110    -150.156
  C      -84.447     146.842    -149.764
  C      -84.372     145.714    -150.548
  C      -84.573     145.865    -151.974
  O      -84.510     144.968    -152.809
  N      -84.118     144.595    -149.796
  C      -84.068     145.041    -148.558
  N      -84.255     146.402    -148.486
  O      -86.003     143.263    -141.810
  O      -87.947     144.840    -141.679
  H      -84.790     149.737    -147.513
  H      -87.572     144.824    -140.775
  H      -85.026     147.329    -153.306
  H      -83.893     144.427    -147.683
  H      -83.303     147.840    -147.372
  H      -86.156     147.980    -147.801
  H      -85.586     149.561    -152.897
  H      -86.662     146.455    -146.180
  H      -85.544     150.149    -151.272
  H      -84.332     147.217    -144.365
  H      -85.822     144.634    -145.158
  H      -84.385     144.675    -144.161
  P      -88.472     148.311    -145.325
  C      -90.054     146.780    -144.016
  O      -89.315     147.988    -144.004
  O      -88.875     147.108    -146.300
  O      -88.768     149.631    -145.958
  H      -89.710     147.308    -146.761
  H      -90.808     146.817    -143.226
  H      -89.383     145.938    -143.827
  H      -90.556     146.638    -144.979
  H      -88.466     141.829    -144.771
  H      -88.183     141.582    -143.064
  H      -86.834     141.653    -144.172

 3  4  5  6  7  8  9  10  11  12  23  26  30  31 0
 6-311+G(2d,p)
 ****
 33  35  36  37  38 0
 6-311+G(2d,p)
 ****
 1  2  13  14  15  16  17  18  19  20  21  22  24  25 0
 3-21G
 ****
 27  28  29  32  34  39  40  41  42  43  44  45  46  47  48  49 0
 3-21G
 ****


