%nproc=1
%NoSave
%Mem=1900MB
#P OB98/GEN NMR

erre ene a

0 1
  C      167.240    -218.263    -239.716
  O      165.969    -217.654    -239.917
  P      164.742    -218.142    -239.004
  C      164.633    -220.361    -240.339
  O      164.723    -219.746    -239.062
  C      163.730    -221.593    -240.294
  O      164.307    -222.569    -239.387
  C      162.299    -221.319    -239.819
  O      161.436    -222.231    -240.512
  C      162.349    -221.705    -238.353
  O      161.056    -221.983    -237.821
  C      163.293    -222.903    -238.415
  N      164.159    -226.514    -234.892
  C      163.537    -226.554    -236.092
  N      163.344    -225.552    -236.974
  C      163.875    -224.406    -236.511
  C      164.510    -224.203    -235.297
  C      164.653    -225.322    -234.461
  N      165.298    -225.286    -233.249
  N      164.895    -222.883    -235.166
  C      164.499    -222.300    -236.282
  N      163.902    -223.189    -237.133
  O      163.468    -217.718    -239.876
  O      164.687    -217.542    -237.638
  H      160.472    -221.229    -238.025
  H      162.987    -216.991    -239.432
  H      163.144    -227.527    -236.384
  H      164.620    -221.251    -236.518
  H      162.782    -223.813    -238.757
  H      162.785    -220.885    -237.766
  H      161.966    -220.288    -239.973
  H      163.720    -222.048    -241.296
  H      165.633    -220.669    -240.650
  H      165.474    -226.153    -232.773
  H      165.828    -224.456    -233.006
  H      164.251    -219.637    -241.068
  P      160.050    -221.644    -241.060
  C      158.796    -222.129    -238.840
  O      159.217    -221.159    -239.781
  O      159.266    -222.949    -241.554
  O      160.198    -220.639    -242.157
  H      158.641    -222.715    -242.270
  H      158.801    -221.684    -237.844
  H      159.451    -223.008    -238.842
  H      157.776    -222.446    -239.089
  H      167.951    -217.837    -240.393
  H      167.164    -219.315    -239.895
  H      167.561    -218.095    -238.709

 3  4  5  6  7  8  9  10  11  12  22  25  29  30  31  32 0
 6-311+G(2d,p)
 ****
 33  36  37 0
 6-311+G(2d,p)
 ****
 1  2  13  14  15  16  17  18  19  20  21  23  24  26 0
 3-21G
 ****
 27  28  34  35  38  39  40  41  42  43  44  45  46  47  48 0
 3-21G
 ****


