%nproc=1
%NoSave
%Mem=1900MB
#P OB98/GEN NMR

erre ene a

0 1
  C     -312.149    -340.773    -210.154
  O     -311.418    -341.016    -211.340
  H     -312.277    -341.722    -209.625
  H     -313.136    -340.377    -210.406
  H     -311.624    -340.073    -209.504
  P     -310.815    -339.767    -212.142
  C     -308.293    -340.132    -211.718
  O     -309.444    -339.355    -211.417
  C     -307.090    -339.230    -212.022
  O     -306.644    -338.616    -210.790
  C     -305.909    -340.037    -212.576
  O     -305.077    -339.253    -213.426
  C     -305.133    -340.399    -211.319
  O     -303.761    -340.697    -211.577
  C     -305.348    -339.155    -210.462
  N     -302.515    -340.870    -206.586
  C     -302.276    -340.956    -207.944
  N     -301.133    -341.582    -208.315
  N     -303.098    -340.494    -208.850
  C     -304.234    -339.967    -208.336
  C     -304.589    -339.844    -207.011
  C     -303.656    -340.328    -206.012
  O     -303.828    -340.292    -204.796
  N     -305.827    -339.258    -206.879
  C     -306.215    -339.029    -208.120
  N     -305.270    -339.419    -209.036
  O     -311.794    -338.558    -211.748
  O     -310.724    -339.938    -213.629
  H     -303.374    -339.922    -212.026
  H     -311.747    -337.855    -212.420
  H     -301.836    -341.216    -205.928
  H     -307.159    -338.575    -208.398
  H     -304.600    -338.391    -210.693
  H     -305.583    -341.298    -210.885
  H     -300.581    -342.113    -207.661
  H     -306.224    -340.930    -213.110
  H     -301.099    -341.925    -209.282
  H     -307.399    -338.415    -212.693
  H     -308.544    -340.745    -212.586
  H     -308.068    -340.813    -210.892
  P     -304.833    -339.750    -214.933
  C     -306.548    -338.064    -216.047
  O     -306.102    -339.387    -215.831
  O     -304.888    -341.340    -214.822
  O     -303.545    -339.272    -215.541
  H     -304.021    -341.728    -215.043
  H     -307.411    -338.077    -216.679
  H     -305.771    -337.498    -216.516
  H     -306.800    -337.615    -215.109

 6  7  8  9  10  11  12  13  14  15  26  29  33  34 0
 6-311+G(2d,p)
 ****
 36  38  39  40  41 0
 6-311+G(2d,p)
 ****
 1  2  3  4  5  16  17  18  19  20  21  22  23  24  25 0
 3-21G
 ****
 27  28  30  31  32  35  37  42  43  44  45  46  47 0
 3-21G
 ****
 48  49 0
 3-21G
 ****


