%nproc=1
%NoSave
%Mem=1900MB
#P OB98/GEN NMR

erre ene a

0 1
  C     -194.439     482.627    -209.767
  O     -194.890     482.855    -211.109
  P     -195.480     484.298    -211.474
  C     -194.254     486.496    -212.141
  O     -194.392     485.097    -212.338
  C     -193.376     487.113    -213.234
  O     -192.115     486.422    -213.362
  C     -194.003     487.063    -214.620
  O     -194.926     488.128    -214.812
  C     -192.781     487.255    -215.503
  O     -192.433     488.655    -215.556
  C     -191.705     486.470    -214.746
  N     -189.534     483.558    -218.357
  C     -189.558     484.896    -218.171
  N     -190.171     485.599    -217.197
  C     -190.803     484.774    -216.346
  C     -190.869     483.392    -216.407
  C     -190.196     482.773    -217.472
  N     -190.173     481.410    -217.653
  N     -191.617     482.890    -215.361
  C     -191.984     483.951    -214.672
  N     -191.524     485.113    -215.230
  O     -195.460     485.062    -210.063
  O     -196.856     484.263    -212.053
  H     -191.607     488.724    -216.074
  H     -196.218     485.670    -210.005
  H     -189.008     485.482    -218.908
  H     -192.575     483.929    -213.765
  H     -190.725     486.962    -214.785
  H     -192.954     486.935    -216.533
  H     -194.457     486.079    -214.813
  H     -193.172     488.155    -212.959
  H     -193.822     486.692    -211.155
  H     -189.645     481.037    -218.429
  H     -190.644     480.821    -216.985
  H     -195.250     486.958    -212.133
  P     -196.470     487.733    -215.000
  C     -198.159     486.616    -213.371
  O     -197.026     487.443    -213.523
  O     -196.392     486.288    -215.679
  O     -197.255     488.699    -215.817
  H     -197.172     486.144    -216.254
  H     -198.215     486.282    -212.333
  H     -198.101     485.738    -214.022
  H     -199.066     487.187    -213.605
  H     -194.075     481.625    -209.678
  H     -195.253     482.772    -209.088
  H     -193.653     483.314    -209.533

 3  4  5  6  7  8  9  10  11  12  22  25  29  30  31  32 0
 6-311+G(2d,p)
 ****
 33  36  37 0
 6-311+G(2d,p)
 ****
 1  2  13  14  15  16  17  18  19  20  21  23  24  26 0
 3-21G
 ****
 27  28  34  35  38  39  40  41  42  43  44  45  46  47  48 0
 3-21G
 ****


