%nproc=1
%NoSave
%Mem=1900MB
#P OB98/GEN NMR

erre ene a

0 1
  C       64.123     152.405     187.451
  O       62.935     152.970     187.980
  P       62.105     154.058     187.144
  C       62.962     155.888     188.734
  O       62.833     155.469     187.381
  C       62.598     157.365     188.879
  O       63.389     158.133     187.943
  C       61.129     157.658     188.589
  O       60.686     158.699     189.465
  C       61.126     158.199     187.168
  O       59.998     159.056     186.940
  C       62.492     158.894     187.110
  N       62.694     161.537     182.708
  C       62.077     161.793     183.884
  N       62.043     161.035     185.004
  C       62.791     159.930     184.844
  C       63.482     159.535     183.709
  C       63.413     160.396     182.597
  N       64.055     160.137     181.406
  N       64.110     158.321     183.914
  C       63.820     158.004     185.156
  N       63.033     158.947     185.764
  O       60.638     154.067     187.402
  O       62.438     153.729     185.615
  H       60.121     159.462     186.058
  H       61.645     153.856     185.058
  H       61.532     162.731     183.931
  H       64.139     157.101     185.658
  H       62.444     159.914     187.505
  H       61.069     157.366     186.459
  H       60.489     156.777     188.699
  H       62.870     157.694     189.888
  H       64.002     155.742     189.044
  H       64.050     160.867     180.709
  H       64.727     159.380     181.381
  H       62.322     155.267     189.370
  P       59.207     158.519     190.079
  C       58.098     159.945     188.206
  O       58.223     158.687     188.826
  O       58.976     159.409     191.254
  O       59.199     156.950     190.414
  H       59.836     156.460     189.850
  H       57.357     159.870     187.401
  H       59.052     160.247     187.767
  H       57.763     160.698     188.925
  H       64.528     151.705     188.152
  H       64.837     153.181     187.269
  H       63.901     151.902     186.533

 3  4  5  6  7  8  9  10  11  12  22  25  29  30  31  32 0
 6-311+G(2d,p)
 ****
 33  36  37 0
 6-311+G(2d,p)
 ****
 1  2  13  14  15  16  17  18  19  20  21  23  24  26 0
 3-21G
 ****
 27  28  34  35  38  39  40  41  42  43  44  45  46  47  48 0
 3-21G
 ****


