%nproc=1
%NoSave
%Mem=1900MB
#P OB98/GEN NMR

erre ene a

0 1
  C      151.138     -31.867     -21.226
  O      150.744     -32.683     -22.336
  P      151.500     -34.040     -22.732
  C      152.743     -32.862     -24.662
  O      152.859     -33.684     -23.503
  C      153.862     -33.145     -25.669
  O      153.659     -34.420     -26.308
  C      153.970     -32.136     -26.805
  O      154.572     -30.932     -26.364
  C      154.788     -32.925     -27.822
  O      156.191     -32.858     -27.520
  C      154.252     -34.357     -27.618
  N      153.305     -34.751     -28.654
  C      153.842     -35.354     -29.796
  O      155.060     -35.481     -29.921
  N      152.982     -35.777     -30.780
  C      151.711     -35.548     -30.668
  N      150.907     -35.996     -31.671
  C      151.115     -34.833     -29.525
  C      151.962     -34.470     -28.564
  O      150.638     -35.031     -23.446
  O      152.013     -34.651     -21.342
  H      156.652     -33.335     -28.237
  H      152.029     -35.624     -21.408
  H      150.055     -34.639     -29.483
  H      151.607     -33.948     -27.683
  H      155.080     -35.077     -27.611
  H      154.661     -32.554     -28.842
  H      152.974     -31.935     -27.218
  H      154.808     -33.196     -25.112
  H      151.347     -36.487     -32.438
  H      152.798     -31.815     -24.346
  H      149.906     -35.872     -31.680
  H      151.765     -33.039     -25.122
  P      153.652     -29.716     -25.874
  C      153.116     -28.560     -28.102
  O      152.626     -29.379     -27.056
  O      154.380     -28.542     -25.310
  O      152.703     -30.383     -24.767
  H      152.485     -29.714     -24.093
  H      152.508     -28.731     -28.995
  H      154.160     -28.795     -28.331
  H      153.033     -27.510     -27.810
  H      150.489     -31.019     -21.159
  H      152.146     -31.536     -21.367
  H      151.073     -32.438     -20.323

 3  4  5  6  7  8  9  10  11  12  13  23  27  28  29  30  32 0
 6-311+G(2d,p)
 ****
 34  35 0
 6-311+G(2d,p)
 ****
 1  2  14  15  16  17  18  19  20  21  22  24  25  26 0
 3-21G
 ****
 31  33  36  37  38  39  40  41  42  43  44  45  46 0
 3-21G
 ****


