%nproc=1
%NoSave
%Mem=1900MB
#P OB98/GEN NMR

erre ene a

0 1
  C     -270.767     731.751     433.211
  O     -272.139     731.352     433.170
  P     -272.656     730.432     434.381
  C     -273.011     731.615     436.666
  O     -273.527     731.348     435.372
  C     -274.045     732.380     437.499
  O     -274.269     733.711     436.968
  C     -275.414     731.719     437.526
  O     -275.414     730.587     438.380
  C     -276.287     732.878     438.001
  O     -276.169     733.041     439.422
  C     -275.634     734.076     437.289
  N     -279.711     736.547     435.414
  C     -279.293     736.321     436.684
  N     -278.197     735.657     437.101
  C     -277.495     735.201     436.055
  C     -277.796     735.347     434.707
  C     -278.964     736.052     434.400
  N     -279.396     736.270     433.105
  N     -276.830     734.741     433.921
  C     -275.981     734.214     434.778
  N     -276.329     734.470     436.077
  O     -271.319     730.131     435.209
  O     -273.323     729.171     433.934
  H     -276.490     732.216     439.838
  H     -271.054     729.196     435.085
  H     -279.925     736.728     437.470
  H     -275.093     733.638     434.511
  H     -275.585     734.969     437.939
  H     -277.352     732.744     437.776
  H     -275.718     731.422     436.504
  H     -273.655     732.474     438.522
  H     -272.083     732.194     436.590
  H     -280.290     736.714     432.974
  H     -278.890     735.839     432.343
  H     -272.742     730.661     437.142
  P     -275.335     729.135     437.692
  C     -273.185     727.817     437.175
  O     -273.890     728.584     438.147
  O     -275.103     729.516     436.161
  O     -276.492     728.245     437.980
  H     -274.426     730.212     436.056
  H     -272.216     727.539     437.594
  H     -273.035     728.409     436.268
  H     -273.747     726.906     436.943
  H     -270.546     732.356     432.356
  H     -270.143     730.882     433.204
  H     -270.586     732.314     434.103

 3  4  5  6  7  8  9  10  11  12  22  25  29  30  31  32 0
 6-311+G(2d,p)
 ****
 33  36  37 0
 6-311+G(2d,p)
 ****
 1  2  13  14  15  16  17  18  19  20  21  23  24  26 0
 3-21G
 ****
 27  28  34  35  38  39  40  41  42  43  44  45  46  47  48 0
 3-21G
 ****


