%nproc=1
%NoSave
%Mem=1900MB
#P OB98/GEN NMR

erre ene a

0 1
  C     -221.400     -74.715    -164.142
  O     -221.414     -76.133    -164.123
  P     -222.370     -76.876    -163.073
  C     -222.167     -77.418    -160.512
  O     -221.682     -76.707    -161.633
  C     -222.232     -76.499    -159.286
  O     -222.768     -75.209    -159.693
  C     -223.114     -77.022    -158.144
  O     -222.501     -76.619    -156.914
  C     -224.420     -76.277    -158.360
  O     -225.213     -76.209    -157.184
  C     -223.898     -74.920    -158.846
  N     -224.896     -74.138    -159.576
  C     -225.119     -72.826    -159.168
  O     -224.542     -72.296    -158.221
  N     -226.064     -72.135    -159.880
  C     -226.839     -72.634    -160.887
  O     -227.687     -71.976    -161.478
  C     -226.593     -74.040    -161.240
  C     -225.644     -74.710    -160.588
  O     -222.111     -78.409    -163.450
  O     -223.793     -76.439    -163.143
  H     -221.193     -78.584    -163.721
  H     -225.465     -77.118    -156.936
  H     -226.218     -71.171    -159.625
  H     -227.198     -74.476    -162.028
  H     -225.445     -75.747    -160.829
  H     -223.523     -74.337    -157.997
  H     -225.006     -76.783    -159.136
  H     -223.225     -78.109    -158.166
  H     -221.208     -76.329    -158.930
  H     -221.500     -78.254    -160.292
  H     -223.156     -77.828    -160.740
  P     -222.605     -77.612    -155.651
  C     -224.587     -78.739    -154.367
  O     -224.157     -77.763    -155.288
  O     -222.058     -76.648    -154.489
  O     -221.819     -78.873    -155.776
  H     -222.473     -75.773    -154.497
  H     -225.583     -78.469    -154.005
  H     -223.914     -78.807    -153.507
  H     -224.644     -79.711    -154.862
  H     -220.717     -74.375    -164.892
  H     -221.091     -74.349    -163.185
  H     -222.382     -74.352    -164.363

 3  4  5  6  7  8  9  10  11  12  13  24  28  29  30  31  32 0
 6-311+G(2d,p)
 ****
 33  34 0
 6-311+G(2d,p)
 ****
 1  2  14  15  16  17  18  19  20  21  22  23  25  26  27 0
 3-21G
 ****
 35  36  37  38  39  40  41  42  43  44  45 0
 3-21G
 ****


