%nproc=1
%NoSave
%Mem=1900MB
#P OB98/GEN NMR

erre ene a

0 1
  C      -55.472      22.545     336.023
  O      -54.664      22.854     337.140
  P      -54.976      24.146     338.040
  C      -52.589      24.960     337.496
  O      -53.977      25.286     337.509
  C      -51.918      25.496     336.232
  O      -52.710      25.184     335.066
  C      -51.735      27.007     336.218
  O      -50.643      27.385     337.036
  C      -51.533      27.264     334.732
  O      -50.174      27.021     334.341
  C      -52.480      26.223     334.091
  N      -53.728      26.817     333.628
  C      -53.673      27.468     332.391
  O      -52.610      27.546     331.775
  N      -54.817      28.062     331.905
  C      -55.904      28.023     332.609
  N      -56.997      28.638     332.082
  C      -55.996      27.374     333.931
  C      -54.880      26.799     334.375
  O      -54.961      23.914     339.514
  O      -56.401      24.636     337.491
  H      -50.143      27.146     333.370
  H      -57.129      24.045     337.799
  H      -56.922      27.380     334.485
  H      -54.856      26.303     335.338
  H      -51.992      25.740     333.233
  H      -51.765      28.297     334.457
  H      -52.656      27.496     336.552
  H      -50.947      24.996     336.126
  H      -56.886      29.097     331.187
  H      -52.491      23.870     337.522
  H      -57.887      28.699     332.559
  H      -52.112      25.369     338.392
  P      -50.855      28.460     338.200
  C      -50.158      30.402     336.675
  O      -51.169      29.872     337.516
  O      -49.792      28.484     339.250
  O      -52.265      28.047     338.839
  H      -52.197      28.077     339.811
  H      -50.605      31.159     336.024
  H      -49.715      29.620     336.054
  H      -49.384      30.869     337.285
  H      -55.108      21.654     335.555
  H      -55.439      23.354     335.324
  H      -56.481      22.392     336.344

 3  4  5  6  7  8  9  10  11  12  13  23  27  28  29  30  32 0
 6-311+G(2d,p)
 ****
 34  35 0
 6-311+G(2d,p)
 ****
 1  2  14  15  16  17  18  19  20  21  22  24  25  26 0
 3-21G
 ****
 31  33  36  37  38  39  40  41  42  43  44  45  46 0
 3-21G
 ****


