%nproc=1
%NoSave
%Mem=1900MB
#P OB98/GEN NMR

erre ene a

0 1
  C      695.865     -27.546    -217.433
  O      695.881     -26.121    -217.449
  P      696.854     -25.377    -218.494
  C      697.234     -25.563    -221.038
  O      696.289     -25.625    -219.974
  C      696.558     -25.875    -222.384
  O      696.053     -27.239    -222.355
  C      695.345     -24.990    -222.717
  O      695.562     -23.771    -223.414
  C      694.567     -25.901    -223.670
  O      695.104     -25.781    -225.002
  C      694.835     -27.308    -223.131
  N      691.765     -31.318    -222.302
  C      692.754     -31.103    -223.204
  N      693.524     -30.005    -223.352
  C      693.201     -29.066    -222.454
  C      692.215     -29.139    -221.480
  C      691.473     -30.330    -221.425
  N      690.458     -30.545    -220.519
  N      692.168     -27.976    -220.746
  C      693.094     -27.203    -221.280
  N      693.755     -27.824    -222.304
  O      698.313     -25.629    -218.314
  O      696.503     -23.837    -218.248
  H      694.560     -26.363    -225.566
  H      697.318     -23.310    -218.324
  H      692.960     -31.925    -223.882
  H      693.318     -26.189    -220.961
  H      694.999     -28.029    -223.930
  H      693.510     -25.634    -223.731
  H      694.744     -24.800    -221.815
  H      697.303     -25.800    -223.189
  H      698.032     -26.282    -220.855
  H      689.945     -31.406    -220.576
  H      690.187     -29.794    -219.896
  H      697.686     -24.573    -221.017
  P      695.108     -22.364    -222.792
  C      695.986     -20.955    -220.768
  O      695.962     -22.192    -221.443
  O      693.635     -22.190    -222.621
  O      695.789     -21.311    -223.785
  H      696.764     -21.285    -223.734
  H      696.430     -21.103    -219.778
  H      694.966     -20.564    -220.637
  H      696.590     -20.237    -221.325
  H      695.174     -27.887    -216.691
  H      696.844     -27.911    -217.203
  H      695.565     -27.910    -218.393

 3  4  5  6  7  8  9  10  11  12  22  25  29  30  31  32 0
 6-311+G(2d,p)
 ****
 33  36  37 0
 6-311+G(2d,p)
 ****
 1  2  13  14  15  16  17  18  19  20  21  23  24  26 0
 3-21G
 ****
 27  28  34  35  38  39  40  41  42  43  44  45  46  47  48 0
 3-21G
 ****


