%nproc=1
%NoSave
%Mem=1900MB
#P OB98/GEN NMR

erre ene a

0 1
  C      205.371    -366.032    -363.909
  O      204.889    -365.590    -362.632
  P      205.807    -364.510    -361.867
  C      207.915    -365.783    -361.062
  O      207.339    -364.956    -362.059
  C      209.097    -366.594    -361.622
  O      210.163    -365.703    -362.058
  C      209.698    -367.584    -360.617
  O      210.123    -368.739    -361.366
  C      210.909    -366.818    -360.102
  O      211.847    -367.625    -359.420
  C      211.374    -366.160    -361.391
  N      215.246    -363.561    -363.461
  C      214.543    -364.623    -363.899
  N      213.522    -365.273    -363.286
  C      213.251    -364.691    -362.095
  C      213.886    -363.605    -361.518
  C      214.934    -363.021    -362.246
  N      215.669    -361.947    -361.808
  N      213.333    -363.316    -360.272
  C      212.441    -364.278    -360.087
  N      212.296    -365.068    -361.187
  O      205.507    -364.787    -360.329
  O      205.509    -363.104    -362.267
  H      212.202    -368.306    -360.019
  H      204.869    -364.149    -359.982
  H      214.831    -365.009    -364.867
  H      211.865    -364.428    -359.186
  H      211.865    -366.885    -362.069
  H      210.568    -366.047    -359.379
  H      209.002    -367.898    -359.826
  H      208.738    -367.136    -362.507
  H      207.156    -366.473    -360.667
  H      216.420    -361.616    -362.403
  H      215.490    -361.540    -360.916
  H      208.234    -365.160    -360.217
  P      209.177    -370.037    -361.373
  C      210.424    -371.621    -359.792
  O      209.361    -370.688    -359.919
  O      210.056    -371.028    -362.275
  O      207.789    -369.830    -361.865
  H      210.978    -371.063    -361.968
  H      210.480    -371.915    -358.730
  H      211.370    -371.156    -360.081
  H      210.221    -372.504    -360.393
  H      204.686    -366.743    -364.322
  H      206.331    -366.489    -363.789
  H      205.455    -365.193    -364.568

 3  4  5  6  7  8  9  10  11  12  22  25  29  30  31  32 0
 6-311+G(2d,p)
 ****
 33  36  37 0
 6-311+G(2d,p)
 ****
 1  2  13  14  15  16  17  18  19  20  21  23  24  26 0
 3-21G
 ****
 27  28  34  35  38  39  40  41  42  43  44  45  46  47  48 0
 3-21G
 ****


