%nproc=1
%NoSave
%Mem=1900MB
#P OB98/GEN NMR

erre ene a

0 1
  C     -276.959    -196.397    -347.615
  O     -277.889    -196.852    -348.612
  P     -279.481    -196.764    -348.441
  C     -281.209    -198.013    -346.988
  O     -280.020    -198.116    -347.766
  C     -281.758    -199.388    -346.596
  O     -282.202    -200.112    -347.793
  C     -280.750    -200.302    -345.865
  O     -281.483    -201.001    -344.863
  C     -280.295    -201.228    -346.987
  O     -279.684    -202.419    -346.523
  C     -281.627    -201.433    -347.709
  N     -281.530    -202.039    -349.036
  C     -281.647    -203.435    -349.119
  O     -281.764    -204.128    -348.122
  N     -281.606    -204.018    -350.370
  C     -281.452    -203.279    -351.425
  N     -281.426    -203.927    -352.629
  C     -281.311    -201.817    -351.382
  C     -281.362    -201.270    -350.168
  O     -280.198    -196.401    -349.700
  O     -279.724    -195.650    -347.312
  H     -280.539    -195.146    -347.536
  H     -280.204    -202.740    -345.757
  H     -281.200    -201.245    -352.289
  H     -281.295    -200.190    -350.050
  H     -282.297    -202.034    -347.081
  H     -279.564    -200.697    -347.607
  H     -279.940    -199.743    -345.384
  H     -282.648    -199.239    -345.981
  H     -281.540    -204.936    -352.623
  H     -281.967    -197.483    -347.582
  H     -281.325    -203.454    -353.514
  H     -281.000    -197.413    -346.091
  P     -281.576    -200.403    -343.382
  C     -279.894    -200.433    -341.388
  O     -280.451    -201.120    -342.486
  O     -282.923    -201.090    -342.825
  O     -281.680    -198.917    -343.270
  H     -283.304    -200.533    -342.129
  H     -279.836    -201.116    -340.534
  H     -280.484    -199.561    -341.097
  H     -278.875    -200.110    -341.649
  H     -275.959    -196.561    -347.959
  H     -277.117    -196.939    -346.706
  H     -277.108    -195.352    -347.438

 3  4  5  6  7  8  9  10  11  12  13  24  27  28  29  30  32 0
 6-311+G(2d,p)
 ****
 34  35 0
 6-311+G(2d,p)
 ****
 1  2  14  15  16  17  18  19  20  21  22  23  25  26 0
 3-21G
 ****
 31  33  36  37  38  39  40  41  42  43  44  45  46 0
 3-21G
 ****


