%nproc=1
%NoSave
%Mem=1900MB
#P OB98/GEN NMR

erre ene a

0 1
  C     -981.758     387.784    -385.846
  O     -980.723     386.815    -385.820
  H     -981.959     388.101    -384.814
  H     -982.672     387.356    -386.264
  H     -981.449     388.655    -386.426
  P     -980.273     386.141    -387.201
  C     -978.566     384.763    -385.829
  O     -979.583     384.736    -386.824
  C     -977.822     383.423    -385.785
  O     -978.720     382.444    -385.185
  C     -977.423     382.923    -387.178
  O     -976.038     382.591    -387.308
  C     -978.438     381.800    -387.468
  O     -978.002     380.814    -388.371
  C     -978.768     381.296    -386.059
  N     -980.078     380.655    -385.956
  C     -980.114     379.252    -386.067
  O     -979.112     378.525    -386.217
  N     -981.347     378.669    -386.000
  C     -982.536     379.330    -385.844
  O     -983.618     378.770    -385.777
  C     -982.447     380.809    -385.763
  C     -981.249     381.383    -385.830
  O     -979.479     387.003    -388.129
  O     -981.661     385.687    -387.876
  H     -977.817     381.244    -389.217
  H     -981.897     386.315    -388.583
  H     -981.386     377.669    -386.056
  H     -983.367     381.352    -385.659
  H     -981.142     382.458    -385.752
  H     -978.030     380.578    -385.715
  H     -979.343     382.265    -387.908
  H     -977.561     383.706    -387.924
  H     -976.955     383.522    -385.130
  H     -979.037     384.962    -384.862
  H     -977.860     385.567    -386.070
  P     -974.898     383.610    -387.741
  C     -972.765     382.651    -386.560
  O     -973.496     382.813    -387.760
  O     -974.913     384.951    -387.053
  O     -975.212     383.861    -389.322
  H     -974.944     384.776    -389.503
  H     -971.869     382.102    -386.760
  H     -973.360     382.116    -385.849
  H     -972.514     383.612    -386.163

 6  7  8  9  10  11  12  13  14  15  16  26  31  32  33  34  35 0
 6-311+G(2d,p)
 ****
 36  37 0
 6-311+G(2d,p)
 ****
 1  2  3  4  5  17  18  19  20  21  22  23  24  25 0
 3-21G
 ****
 27  28  29  30  38  39  40  41  42  43  44  45 0
 3-21G
 ****


