%nproc=1
%NoSave
%Mem=1900MB
#P OB98/GEN NMR

erre ene a

0 1
  C      261.364     322.824     -71.016
  O      262.258     323.079     -69.948
  H      261.577     321.830     -71.420
  H      261.509     323.567     -71.808
  H      260.329     322.850     -70.661
  P      262.009     324.415     -69.100
  C      263.491     325.989     -70.592
  O      262.198     325.660     -70.102
  C      263.386     327.078     -71.657
  O      262.762     326.582     -72.858
  C      262.509     328.251     -71.251
  O      263.096     329.059     -70.262
  C      262.331     328.945     -72.597
  O      263.488     329.726     -72.926
  C      262.200     327.730     -73.550
  N      260.822     327.489     -73.962
  C      260.302     328.392     -74.904
  O      261.004     329.308     -75.335
  N      258.998     328.248     -75.303
  C      258.283     327.276     -74.827
  N      256.993     327.189     -75.254
  C      258.794     326.290     -73.852
  C      260.058     326.459     -73.468
  O      263.317     324.497     -68.185
  O      260.719     324.461     -68.344
  H      263.424     329.917     -73.882
  H      264.149     324.453     -68.687
  H      258.162     325.489     -73.492
  H      260.512     325.778     -72.759
  H      262.803     327.883     -74.453
  H      261.473     329.624     -72.599
  H      261.520     327.890     -70.928
  H      264.402     327.406     -71.913
  H      256.669     327.899     -75.901
  H      263.993     325.102     -70.998
  H      256.332     326.499     -74.926
  H      264.087     326.344     -69.748
  P      262.286     329.452     -68.934
  C      261.670     331.807     -69.772
  O      261.181     330.533     -69.386
  O      263.120     329.872     -67.777
  O      261.391     328.152     -68.655
  H      260.777     327.912     -69.372
  H      260.849     332.435     -70.049
  H      262.332     331.697     -70.605
  H      262.197     332.250     -68.953

 6  7  8  9  10  11  12  13  14  15  16  26  30  31  32  33  35 0
 6-311+G(2d,p)
 ****
 37  38 0
 6-311+G(2d,p)
 ****
 1  2  3  4  5  17  18  19  20  21  22  23  24  25 0
 3-21G
 ****
 27  28  29  34  36  39  40  41  42  43  44  45  46 0
 3-21G
 ****


