%nproc=1
%NoSave
%Mem=1900MB
#P OB98/GEN NMR

erre ene a

0 1
  C      761.882      97.530     197.581
  O      760.512      97.374     197.204
  P      760.194      97.106     195.651
  C      760.756      94.958     194.260
  O      760.264      95.516     195.473
  C      760.819      93.435     194.366
  O      761.739      93.036     195.423
  C      759.497      92.781     194.720
  O      758.612      92.762     193.602
  C      759.962      91.406     195.183
  O      760.231      90.557     194.055
  C      761.287      91.749     195.905
  N      761.166      91.738     197.356
  C      761.211      90.480     197.960
  O      761.332      89.431     197.327
  N      761.110      90.469     199.323
  C      760.931      91.562     200.128
  O      760.855      91.480     201.348
  C      760.837      92.852     199.433
  C      760.950      92.887     198.098
  O      761.534      97.647     194.968
  O      758.933      97.764     195.193
  H      762.334      97.476     195.505
  H      760.457      89.677     194.420
  H      761.156      89.563     199.780
  H      760.667      93.741     200.032
  H      760.886      93.830     197.567
  H      762.067      91.029     195.620
  H      759.224      90.898     195.808
  H      759.020      93.316     195.557
  H      761.198      93.039     193.414
  H      761.761      95.347     194.046
  H      760.102      95.269     193.437
  P      757.268      93.635     193.727
  C      756.805      96.073     192.908
  O      757.699      95.162     193.509
  O      756.977      93.531     195.299
  O      756.151      93.141     192.855
  H      757.774      93.653     195.839
  H      757.115      97.091     193.156
  H      755.779      95.923     193.255
  H      756.836      95.953     191.815
  H      761.945      97.701     198.635
  H      762.303      98.364     197.059
  H      762.424      96.642     197.331

 3  4  5  6  7  8  9  10  11  12  13  24  28  29  30  31  32 0
 6-311+G(2d,p)
 ****
 33  34 0
 6-311+G(2d,p)
 ****
 1  2  14  15  16  17  18  19  20  21  22  23  25  26  27 0
 3-21G
 ****
 35  36  37  38  39  40  41  42  43  44  45 0
 3-21G
 ****


