%nproc=1
%NoSave
%Mem=1900MB
#P OB98/GEN NMR

erre ene a

0 1
  C       49.683     -48.106      42.029
  O       49.964     -48.206      43.413
  H       48.676     -47.700      41.905
  H       49.725     -49.095      41.566
  H       50.398     -47.435      41.549
  P       51.416     -48.763      43.810
  C       50.660     -51.190      44.306
  O       51.359     -50.320      43.426
  C       50.809     -52.640      43.855
  O       50.165     -52.843      42.584
  C       52.252     -53.094      43.666
  O       52.841     -53.437      44.909
  C       52.052     -54.315      42.781
  O       51.647     -55.439      43.587
  C       50.890     -53.880      41.868
  N       50.773     -54.689      36.800
  C       50.432     -55.477      37.843
  N       50.530     -55.212      39.163
  C       51.041     -53.988      39.368
  C       51.434     -53.072      38.403
  C       51.275     -53.460      37.063
  N       51.614     -52.648      36.000
  N       51.914     -51.919      38.989
  C       51.763     -52.115      40.284
  N       51.272     -53.366      40.566
  O       51.880     -48.437      45.187
  O       52.309     -48.152      42.628
  H       51.548     -56.206      42.991
  H       51.826     -48.182      41.784
  H       50.024     -56.449      37.582
  H       51.975     -51.382      41.053
  H       50.189     -54.703      41.684
  H       52.967     -54.608      42.263
  H       52.838     -52.348      43.120
  H       50.292     -53.274      44.587
  H       49.600     -50.919      44.348
  H       51.629     -53.065      35.083
  H       52.102     -51.786      36.199
  H       51.089     -51.059      45.305
  P       54.419     -53.268      45.140
  C       54.559     -55.740      44.451
  O       55.131     -54.445      44.313
  O       54.841     -53.169      46.566
  O       54.808     -51.957      44.312
  H       55.480     -51.438      44.795
  H       55.112     -56.439      43.859
  H       53.542     -55.718      44.119
  H       54.593     -56.037      45.478

 6  7  8  9  10  11  12  13  14  15  25  28  32  33  34  35 0
 6-311+G(2d,p)
 ****
 36  39  40 0
 6-311+G(2d,p)
 ****
 1  2  3  4  5  16  17  18  19  20  21  22  23  24 0
 3-21G
 ****
 26  27  29  30  31  37  38  41  42  43  44  45  46  47 0
 3-21G
 ****
 48 0
 3-21G
 ****


