%nproc=1
%NoSave
%Mem=1900MB
#P OB98/GEN NMR

erre ene a

0 1
  C      382.807    -811.146    -248.916
  O      382.364    -810.769    -250.230
  P      381.621    -811.875    -251.130
  C      380.661    -812.024    -253.521
  O      381.505    -811.296    -252.627
  C      380.604    -811.347    -254.895
  O      379.786    -810.152    -254.870
  C      381.977    -810.901    -255.396
  O      382.750    -812.013    -255.831
  C      381.582    -809.899    -256.479
  O      381.261    -810.582    -257.710
  C      380.300    -809.267    -255.887
  N      380.517    -807.924    -255.364
  C      381.119    -807.007    -256.232
  O      381.448    -807.353    -257.363
  N      381.316    -805.707    -255.801
  C      380.955    -805.384    -254.602
  N      381.181    -804.084    -254.225
  C      380.341    -806.319    -253.632
  C      380.162    -807.565    -254.071
  O      380.367    -812.435    -250.562
  O      382.743    -813.005    -251.298
  H      382.045    -811.121    -257.934
  H      382.293    -813.880    -251.393
  H      380.060    -805.990    -252.642
  H      379.724    -808.324    -253.428
  H      379.522    -809.200    -256.655
  H      382.379    -809.194    -256.697
  H      382.503    -810.375    -254.582
  H      380.165    -812.070    -255.598
  H      381.621    -803.465    -254.895
  H      379.654    -812.094    -253.101
  H      380.900    -803.719    -253.334
  H      381.035    -813.054    -253.603
  P      384.207    -812.187    -255.212
  C      385.872    -814.157    -254.893
  O      384.583    -813.744    -255.304
  O      383.941    -811.971    -253.638
  O      385.242    -811.241    -255.709
  H      384.730    -811.544    -253.228
  H      385.858    -815.227    -254.728
  H      386.170    -813.657    -253.958
  H      386.612    -813.932    -255.669
  H      383.279    -810.309    -248.445
  H      383.506    -811.953    -248.993
  H      381.966    -811.457    -248.332

 3  4  5  6  7  8  9  10  11  12  13  23  27  28  29  30  32 0
 6-311+G(2d,p)
 ****
 34  35 0
 6-311+G(2d,p)
 ****
 1  2  14  15  16  17  18  19  20  21  22  24  25  26 0
 3-21G
 ****
 31  33  36  37  38  39  40  41  42  43  44  45  46 0
 3-21G
 ****


