%nproc=1
%NoSave
%Mem=1900MB
#P OB98/GEN NMR

erre ene a

0 1
  C     1211.153     719.159    -445.318
  O     1211.593     718.219    -446.270
  H     1212.022     719.531    -444.761
  H     1210.461     718.695    -444.602
  H     1210.661     720.003    -445.797
  P     1210.500     717.468    -447.162
  C     1209.202     715.222    -447.000
  O     1210.103     716.122    -446.366
  C     1209.339     713.819    -446.410
  O     1210.662     713.301    -446.682
  C     1209.179     713.747    -444.899
  O     1207.813     713.852    -444.538
  C     1209.825     712.396    -444.603
  O     1208.923     711.322    -444.920
  C     1211.017     712.424    -445.594
  N     1212.264     712.853    -444.956
  C     1212.769     712.018    -443.955
  O     1212.163     711.004    -443.604
  N     1213.948     712.384    -443.340
  C     1214.574     713.431    -443.721
  N     1215.758     713.735    -443.071
  C     1214.134     714.306    -444.813
  C     1212.970     713.972    -445.368
  O     1210.842     717.238    -448.609
  O     1209.178     718.377    -447.012
  H     1208.166     711.409    -444.321
  H     1209.121     719.012    -447.738
  H     1214.691     715.176    -445.108
  H     1212.556     714.561    -446.188
  H     1211.180     711.417    -446.016
  H     1210.097     712.293    -443.560
  H     1209.775     714.525    -444.408
  H     1208.632     713.167    -446.918
  H     1216.026     713.088    -442.332
  H     1209.451     715.225    -448.058
  H     1216.420     714.430    -443.387
  H     1208.163     715.577    -446.882
  P     1207.299     714.959    -443.498
  C     1206.352     714.840    -441.097
  O     1207.156     714.203    -442.107
  O     1206.106     715.729    -443.946
  O     1208.596     715.872    -443.258
  H     1208.726     716.495    -444.025
  H     1206.338     714.232    -440.217
  H     1205.354     714.963    -441.461
  H     1206.767     715.798    -440.862

 6  7  8  9  10  11  12  13  14  15  16  26  30  31  32  33  35 0
 6-311+G(2d,p)
 ****
 37  38 0
 6-311+G(2d,p)
 ****
 1  2  3  4  5  17  18  19  20  21  22  23  24  25 0
 3-21G
 ****
 27  28  29  34  36  39  40  41  42  43  44  45  46 0
 3-21G
 ****


