%nproc=1
%NoSave
%Mem=1900MB
#P OB98/GEN NMR

erre ene a

0 1
  C       24.323     -59.278    -526.671
  O       24.528     -58.872    -525.337
  P       25.497     -57.639    -524.997
  C       25.372     -58.199    -522.485
  O       26.221     -58.010    -523.611
  C       26.057     -59.083    -521.446
  O       26.143     -60.456    -521.911
  C       27.498     -58.693    -521.154
  O       27.721     -57.445    -520.520
  C       28.003     -59.931    -520.438
  O       27.616     -59.930    -519.062
  C       27.264     -61.055    -521.204
  N       28.155     -61.773    -522.112
  C       27.990     -63.156    -522.167
  O       27.150     -63.765    -521.503
  N       28.845     -63.826    -522.994
  C       29.864     -63.275    -523.718
  O       30.624     -63.949    -524.404
  C       30.004     -61.812    -523.608
  C       29.159     -61.139    -522.825
  O       24.851     -56.296    -525.021
  O       26.690     -57.808    -526.059
  H       27.964     -59.114    -518.655
  H       27.172     -58.652    -525.996
  H       28.751     -64.829    -523.039
  H       30.791     -61.341    -524.183
  H       29.241     -60.063    -522.725
  H       26.835     -61.785    -520.500
  H       29.094     -60.004    -520.461
  H       28.041     -58.636    -522.109
  H       25.444     -59.087    -520.540
  H       24.448     -58.688    -522.818
  H       25.101     -57.219    -522.062
  P       28.599     -56.276    -521.169
  C       29.109     -55.251    -518.844
  O       29.627     -55.746    -520.058
  O       27.870     -55.249    -521.975
  O       29.572     -57.106    -522.146
  H       29.792     -56.556    -522.917
  H       29.941     -54.896    -518.230
  H       28.589     -56.043    -518.298
  H       28.425     -54.412    -519.028
  H       23.650     -60.110    -526.691
  H       25.258     -59.565    -527.104
  H       23.905     -58.467    -527.230

 3  4  5  6  7  8  9  10  11  12  13  23  28  29  30  31  32 0
 6-311+G(2d,p)
 ****
 33  34 0
 6-311+G(2d,p)
 ****
 1  2  14  15  16  17  18  19  20  21  22  24  25  26  27 0
 3-21G
 ****
 35  36  37  38  39  40  41  42  43  44  45 0
 3-21G
 ****


