%nproc=1
%NoSave
%Mem=1900MB
#P OB98/GEN NMR

erre ene a

0 1
  C     -227.274    -153.671    -146.390
  O     -228.346    -153.732    -147.307
  H     -227.057    -152.619    -146.177
  H     -226.381    -154.130    -146.820
  H     -227.533    -154.168    -145.452
  P     -228.976    -155.162    -147.659
  C     -230.593    -154.689    -145.709
  O     -229.775    -155.654    -146.361
  C     -232.020    -155.217    -145.584
  O     -232.616    -155.342    -146.896
  C     -232.110    -156.605    -144.964
  O     -231.915    -156.563    -143.565
  C     -233.500    -157.026    -145.409
  O     -234.508    -156.477    -144.551
  C     -233.591    -156.406    -146.820
  N     -233.370    -157.399    -147.871
  C     -234.091    -157.221    -149.048
  O     -234.870    -156.287    -149.232
  N     -233.934    -158.196    -149.997
  C     -233.257    -159.367    -149.826
  O     -233.346    -160.315    -150.601
  C     -232.466    -159.474    -148.591
  C     -232.567    -158.505    -147.678
  O     -228.030    -156.159    -148.240
  O     -230.154    -154.809    -148.687
  H     -229.857    -155.009    -149.596
  H     -234.437    -156.970    -143.706
  H     -234.489    -158.094    -150.836
  H     -231.858    -160.358    -148.451
  H     -232.019    -158.577    -146.743
  H     -234.574    -155.947    -146.976
  H     -233.612    -158.111    -145.400
  H     -231.372    -157.268    -145.430
  H     -232.608    -154.491    -145.010
  H     -230.594    -153.771    -146.306
  H     -230.171    -154.473    -144.722
  P     -231.309    -157.830    -142.796
  C     -229.005    -156.726    -142.509
  O     -229.721    -157.845    -143.023
  O     -231.991    -159.129    -143.069
  O     -231.439    -157.440    -141.245
  H     -231.865    -158.181    -140.770
  H     -227.962    -156.844    -142.717
  H     -229.153    -156.663    -141.451
  H     -229.362    -155.830    -142.973

 6  7  8  9  10  11  12  13  14  15  16  27  31  32  33  34  35 0
 6-311+G(2d,p)
 ****
 36  37 0
 6-311+G(2d,p)
 ****
 1  2  3  4  5  17  18  19  20  21  22  23  24  25 0
 3-21G
 ****
 26  28  29  30  38  39  40  41  42  43  44  45 0
 3-21G
 ****


