%nproc=1
%NoSave
%Mem=1900MB
#P OB98/GEN NMR

erre ene a

0 1
  C     -447.978    -129.429    -599.331
  O     -446.759    -130.140    -599.458
  H     -447.847    -128.429    -599.758
  H     -448.241    -129.323    -598.274
  H     -448.779    -129.945    -599.864
  P     -446.782    -131.688    -599.045
  C     -446.251    -132.506    -601.489
  O     -447.134    -132.525    -600.370
  C     -445.333    -133.724    -601.445
  O     -446.089    -134.952    -601.414
  C     -444.452    -133.878    -602.681
  O     -443.424    -132.922    -602.741
  C     -443.958    -135.304    -602.490
  O     -442.884    -135.351    -601.534
  C     -445.226    -135.997    -601.932
  N     -445.901    -136.810    -602.932
  C     -446.516    -137.982    -602.454
  O     -446.466    -138.263    -601.266
  N     -447.133    -138.804    -603.359
  C     -447.164    -138.498    -604.624
  N     -447.788    -139.359    -605.461
  C     -446.558    -137.262    -605.154
  C     -445.945    -136.470    -604.268
  O     -448.122    -131.800    -598.184
  O     -445.553    -132.178    -598.345
  H     -442.103    -134.986    -601.976
  H     -448.910    -131.463    -598.646
  H     -446.617    -137.030    -606.210
  H     -445.471    -135.549    -604.579
  H     -444.968    -136.647    -601.083
  H     -443.568    -135.736    -603.420
  H     -445.076    -133.863    -603.588
  H     -444.723    -133.671    -600.528
  H     -448.177    -140.212    -605.057
  H     -445.664    -131.575    -601.508
  H     -447.843    -139.237    -606.465
  H     -446.863    -132.523    -602.396
  P     -442.432    -132.870    -604.014
  C     -444.119    -131.551    -605.452
  O     -443.365    -132.765    -605.320
  O     -441.416    -133.966    -604.065
  O     -441.808    -131.400    -603.927
  H     -442.455    -130.676    -603.973
  H     -444.700    -131.588    -606.350
  H     -443.449    -130.718    -605.495
  H     -444.770    -131.442    -604.610

 6  7  8  9  10  11  12  13  14  15  16  26  30  31  32  33  35 0
 6-311+G(2d,p)
 ****
 37  38 0
 6-311+G(2d,p)
 ****
 1  2  3  4  5  17  18  19  20  21  22  23  24  25 0
 3-21G
 ****
 27  28  29  34  36  39  40  41  42  43  44  45  46 0
 3-21G
 ****


