%nproc=1
%NoSave
%Mem=1900MB
#P OB98/GEN NMR

erre ene a

0 1
  C     -277.656     190.847       0.620
  O     -278.258     190.878       1.908
  P     -278.964     189.533       2.428
  C     -281.286     190.615       2.021
  O     -280.417     189.519       1.754
  C     -282.736     190.147       2.076
  O     -283.150     189.693       0.776
  C     -282.990     188.979       3.017
  O     -283.108     189.401       4.368
  C     -284.319     188.459       2.487
  O     -285.395     189.249       3.021
  C     -284.182     188.693       0.973
  N     -285.128     183.766       0.261
  C     -285.734     184.671       1.109
  N     -286.759     184.202       1.857
  N     -285.370     185.922       1.219
  C     -284.361     186.260       0.383
  C     -283.677     185.453      -0.499
  C     -284.055     184.060      -0.573
  O     -283.509     183.194      -1.259
  N     -282.723     186.162      -1.187
  C     -282.854     187.397      -0.750
  N     -283.814     187.502       0.227
  O     -279.272     189.859       3.964
  O     -278.148     188.294       2.276
  H     -285.558     188.933       3.929
  H     -279.327     189.028       4.477
  H     -285.459     182.820       0.205
  H     -282.279     188.238      -1.107
  H     -285.106     189.096       0.547
  H     -284.513     187.419       2.770
  H     -287.166     183.290       1.722
  H     -282.221     188.206       2.903
  H     -287.240     184.860       2.456
  H     -283.361     191.008       2.350
  H     -281.182     191.361       1.225
  H     -280.992     191.073       2.973
  P     -282.770     188.308       5.496
  C     -285.082     187.508       6.376
  O     -284.008     187.290       5.478
  O     -282.955     189.117       6.862
  O     -281.412     187.699       5.376
  H     -282.407     188.721       7.567
  H     -285.277     188.576       6.514
  H     -284.847     187.051       7.342
  H     -285.982     187.038       5.971
  H     -277.227     191.803       0.404
  H     -278.398     190.614      -0.115
  H     -276.890     190.100       0.602

 3  4  5  6  7  8  9  10  11  12  23  26  30  31  33  0
 6-311+G(2d,p)
 ****
 35  36  37  38 0
 6-311+G(2d,p)
 ****
 1  2  13  14  15  16  17  18  19  20  21  22  24  25  27  28  29 0
 3-21G
 ****
 32  34  39  40  41  42  43  44  45  46  47  48  49 0
 3-21G
 ****


