%nproc=1
%NoSave
%Mem=1900MB
#P OB98/GEN NMR

erre ene a

0 1
  C     -951.421    -568.603     552.063
  O     -950.856    -567.381     552.518
  P     -949.517    -567.474     553.421
  C     -948.704    -565.051     552.934
  O     -949.198    -565.982     553.907
  C     -948.469    -563.695     553.585
  O     -949.714    -562.950     553.702
  C     -947.911    -563.752     555.016
  O     -946.501    -563.961     555.018
  C     -948.252    -562.364     555.523
  O     -947.275    -561.420     555.049
  C     -949.630    -562.102     554.875
  N     -951.785    -560.872     559.288
  C     -950.781    -560.240     558.599
  N     -950.202    -559.160     559.182
  N     -950.336    -560.629     557.423
  C     -950.986    -561.737     556.948
  C     -952.005    -562.437     557.553
  C     -952.452    -562.009     558.852
  O     -953.316    -562.555     559.532
  N     -952.414    -563.485     556.765
  C     -951.634    -563.413     555.699
  N     -950.730    -562.384     555.801
  O     -948.365    -567.777     552.348
  O     -949.574    -568.503     554.510
  H     -947.481    -560.561     555.474
  H     -947.563    -568.127     552.818
  H     -952.069    -560.537     560.199
  H     -951.693    -564.086     554.834
  H     -949.719    -561.067     554.541
  H     -948.242    -562.318     556.609
  H     -950.454    -558.836     560.111
  H     -948.446    -564.501     555.618
  H     -949.425    -558.712     558.724
  H     -947.788    -563.110     552.935
  H     -949.424    -564.953     552.120
  H     -947.765    -565.437     552.517
  P     -945.991    -565.356     555.664
  C     -943.529    -565.034     554.891
  O     -944.413    -565.115     555.957
  O     -945.978    -566.355     554.408
  O     -946.820    -565.853     556.794
  H     -946.098    -567.283     554.709
  H     -942.569    -564.618     555.242
  H     -943.916    -564.383     554.074
  H     -943.333    -566.029     554.475
  H     -952.295    -568.397     551.482
  H     -951.686    -569.208     552.904
  H     -950.707    -569.124     551.460

 3  4  5  6  7  8  9  10  11  12  23  26  30  31 0
 6-311+G(2d,p)
 ****
 33  35  36  37  38 0
 6-311+G(2d,p)
 ****
 1  2  13  14  15  16  17  18  19  20  21  22  24  25 0
 3-21G
 ****
 27  28  29  32  34  39  40  41  42  43  44  45  46  47  48  49 0
 3-21G
 ****


