%nproc=1
%NoSave
%Mem=1900MB
#P OB98/GEN NMR

erre ene a

0 1
  C      413.427    -262.872    -912.772
  O      413.392    -262.053    -911.616
  H      413.813    -263.858    -912.495
  H      414.098    -262.429    -913.527
  H      412.421    -262.982    -913.192
  P      412.911    -260.532    -911.835
  C      412.058    -259.631    -909.560
  O      413.166    -259.781    -910.438
  C      412.523    -259.675    -908.103
  O      413.025    -260.994    -907.751
  C      413.635    -258.679    -907.766
  O      413.099    -257.398    -907.489
  C      414.257    -259.333    -906.545
  O      413.481    -259.062    -905.360
  C      414.184    -260.837    -906.901
  N      418.130    -263.961    -906.435
  C      417.151    -263.620    -905.525
  N      417.259    -264.158    -904.295
  N      416.163    -262.795    -905.784
  C      416.217    -262.281    -907.044
  C      417.126    -262.543    -908.033
  C      418.171    -263.500    -907.755
  O      419.029    -263.913    -908.544
  N      416.832    -261.851    -909.189
  C      415.769    -261.127    -908.865
  N      415.355    -261.362    -907.573
  O      411.318    -260.661    -911.902
  O      413.455    -259.853    -913.046
  H      412.541    -259.194    -905.557
  H      410.983    -260.022    -912.572
  H      418.842    -264.623    -906.192
  H      415.257    -260.455    -909.533
  H      414.034    -261.458    -906.009
  H      415.266    -258.956    -906.355
  H      418.123    -264.552    -903.945
  H      414.379    -258.644    -908.577
  H      416.588    -263.835    -903.594
  H      411.636    -259.492    -907.467
  H      411.350    -260.467    -909.739
  H      411.548    -258.688    -909.758
  P      413.916    -256.120    -908.013
  C      411.921    -254.465    -908.214
  O      413.129    -254.798    -907.539
  O      413.670    -256.151    -909.607
  O      415.377    -256.144    -907.678
  H      414.490    -256.466    -910.056
  H      411.513    -253.569    -907.794
  H      411.218    -255.264    -908.102
  H      412.124    -254.312    -909.253

 6  7  8  9  10  11  12  13  14  15  26  29  33  34 0
 6-311+G(2d,p)
 ****
 36  38  39  40  41 0
 6-311+G(2d,p)
 ****
 1  2  3  4  5  16  17  18  19  20  21  22  23  24  25 0
 3-21G
 ****
 27  28  30  31  32  35  37  42  43  44  45  46  47 0
 3-21G
 ****
 48  49 0
 3-21G
 ****


