%nproc=1
%NoSave
%Mem=1900MB
#P OB98/GEN NMR

erre ene a

0 1
  C       94.598      15.257      90.648
  O       96.019      15.201      90.532
  P       96.827      16.560      90.266
  C       96.703      18.437      88.507
  O       96.501      17.054      88.776
  C       96.769      18.693      87.001
  O       98.044      18.308      86.450
  C       95.735      17.907      86.213
  O       94.443      18.464      86.374
  C       96.307      17.988      84.805
  O       95.955      19.232      84.177
  C       97.828      17.941      85.070
  N       98.425      16.651      84.761
  C       98.733      16.423      83.415
  O       98.463      17.270      82.565
  N       99.325      15.232      83.069
  C       99.578      14.348      83.984
  N      100.168      13.190      83.584
  C       99.258      14.545      85.411
  C       98.682      15.704      85.725
  O       98.275      16.532      90.627
  O       96.029      17.626      91.166
  H       94.986      19.319      84.277
  H       96.653      18.316      91.462
  H       99.495      13.780      86.136
  H       98.410      15.929      86.749
  H       98.342      18.699      84.464
  H       95.929      17.186      84.165
  H       95.731      16.862      86.549
  H       96.627      19.769      86.831
  H      100.366      13.075      82.598
  H       97.631      18.768      88.981
  H      100.450      12.464      84.226
  H       95.892      19.010      88.970
  P       93.311      17.542      87.035
  C       91.895      15.521      86.243
  O       92.674      16.642      85.876
  O       92.146      18.590      87.373
  O       93.742      16.802      88.260
  H       91.686      18.316      88.187
  H       91.291      15.217      85.382
  H       91.225      15.756      87.076
  H       92.550      14.692      86.523
  H       94.215      14.273      90.823
  H       94.181      15.646      89.743
  H       94.332      15.894      91.466

 3  4  5  6  7  8  9  10  11  12  13  23  27  28  29  30  32 0
 6-311+G(2d,p)
 ****
 34  35 0
 6-311+G(2d,p)
 ****
 1  2  14  15  16  17  18  19  20  21  22  24  25  26 0
 3-21G
 ****
 31  33  36  37  38  39  40  41  42  43  44  45  46 0
 3-21G
 ****


