%nproc=1
%NoSave
%Mem=1900MB
#P OB98/GEN NMR

erre ene a

0 1
  C     -272.063    2359.879     138.521
  O     -272.160    2358.586     137.986
  H     -273.079    2360.219     138.825
  H     -271.683    2360.568     137.790
  H     -271.428    2359.886     139.425
  P     -270.817    2357.804     137.610
  C     -271.064    2356.257     139.700
  O     -270.225    2357.178     138.974
  C     -270.372    2355.838     141.009
  O     -269.095    2355.259     140.724
  C     -270.177    2357.025     141.986
  O     -270.402    2356.574     143.284
  C     -268.688    2357.363     141.791
  O     -268.120    2357.972     142.939
  C     -268.109    2355.992     141.462
  N     -264.153    2358.983     140.389
  C     -265.177    2359.142     141.320
  N     -265.151    2360.294     142.024
  N     -266.141    2358.275     141.495
  C     -266.014    2357.184     140.699
  C     -265.040    2356.908     139.776
  C     -263.998    2357.854     139.553
  O     -263.079    2357.772     138.758
  N     -265.275    2355.660     139.182
  C     -266.389    2355.223     139.772
  N     -266.858    2356.091     140.688
  O     -269.834    2358.576     136.810
  O     -271.325    2356.511     136.819
  H     -267.129    2357.902     142.849
  H     -271.146    2356.591     135.856
  H     -263.456    2359.658     140.280
  H     -266.872    2354.281     139.537
  H     -267.862    2355.424     142.362
  H     -268.560    2358.033     140.918
  H     -264.432    2361.003     141.947
  H     -270.819    2357.878     141.726
  H     -265.881    2360.457     142.711
  H     -271.003    2355.080     141.474
  H     -271.191    2355.397     139.048
  H     -272.023    2356.730     139.867
  P     -271.929    2356.295     143.781
  C     -272.002    2353.706     143.731
  O     -272.398    2354.932     143.096
  O     -272.851    2357.458     143.642
  O     -271.742    2355.879     145.321
  H     -272.526    2356.178     145.813
  H     -272.381    2352.876     143.172
  H     -272.396    2353.676     144.725
  H     -270.934    2353.653     143.769

 6  7  8  9  10  11  12  13  14  15  26  29  33  34 0
 6-311+G(2d,p)
 ****
 36  38  39  40  41 0
 6-311+G(2d,p)
 ****
 1  2  3  4  5  16  17  18  19  20  21  22  23  24  25 0
 3-21G
 ****
 27  28  30  31  32  35  37  42  43  44  45  46  47 0
 3-21G
 ****
 48  49 0
 3-21G
 ****


