%nproc=1
%NoSave
%Mem=1900MB
#P OB98/GEN NMR

erre ene a

0 1
  C       20.089     290.275    -889.930
  O       20.184     290.984    -891.160
  H       20.432     289.246    -890.110
  H       19.050     290.245    -889.600
  H       20.718     290.730    -889.170
  P       19.815     292.555    -891.100
  C       22.198     293.344    -891.780
  O       20.820     293.286    -892.130
  C       23.078     293.401    -893.030
  O       23.226     292.048    -893.570
  C       22.503     294.278    -894.160
  O       23.608     294.901    -894.830
  C       21.886     293.255    -895.110
  O       21.733     293.765    -896.430
  C       22.902     292.113    -894.970
  N       23.333     288.676    -898.620
  C       24.083     289.824    -898.380
  N       25.080     290.104    -899.240
  N       23.841     290.624    -897.370
  C       22.827     290.215    -896.570
  C       22.012     289.092    -896.720
  C       22.267     288.222    -897.840
  O       21.647     287.199    -898.120
  N       21.088     289.030    -895.710
  C       21.326     290.122    -894.970
  N       22.364     290.850    -895.460
  O       20.359     292.992    -889.660
  O       18.362     292.879    -891.280
  H       22.633     293.909    -896.800
  H       19.633     292.941    -889.000
  H       23.563     288.099    -899.420
  H       20.756     290.398    -894.090
  H       23.814     292.313    -895.540
  H       20.887     292.951    -894.740
  H       25.353     289.506    -900.000
  H       21.796     295.041    -893.830
  H       25.651     290.921    -899.050
  H       24.084     293.738    -892.740
  H       22.448     292.441    -891.200
  H       22.368     294.230    -891.150
  P       23.289     296.036    -895.920
  C       24.265     298.125    -894.670
  O       24.387     297.209    -895.760
  O       21.975     296.726    -895.310
  O       23.050     295.546    -897.310
  H       21.433     297.117    -896.020
  H       25.066     298.834    -894.708
  H       24.309     297.587    -893.746
  H       23.329     298.640    -894.740

 6  7  8  9  10  11  12  13  14  15  26  29  33  34 0
 6-311+G(2d,p)
 ****
 36  38  39  40  41 0
 6-311+G(2d,p)
 ****
 1  2  3  4  5  16  17  18  19  20  21  22  23  24  25 0
 3-21G
 ****
 27  28  30  31  32  35  37  42  43  44  45  46  47 0
 3-21G
 ****
 48  49 0
 3-21G
 ****


