%nproc=1
%NoSave
%Mem=1900MB
#P OB98/GEN NMR

erre ene a

0 1
  C      594.121      81.515      -3.079
  O      594.122      82.911      -2.862
  H      595.017      81.088      -2.618
  H      594.137      81.293      -4.149
  H      593.243      81.058      -2.614
  P      592.926      83.783      -3.478
  C      594.725      85.257      -4.605
  O      593.547      85.227      -3.803
  C      595.073      86.697      -4.976
  O      596.320      86.746      -5.694
  C      594.037      87.390      -5.857
  O      592.952      87.875      -5.080
  C      594.880      88.511      -6.444
  O      595.050      89.553      -5.469
  C      596.223      87.795      -6.694
  N      597.066      88.655     -11.627
  C      596.857      89.553     -10.598
  N      596.843      90.863     -10.929
  N      596.670      89.192      -9.350
  C      596.642      87.855      -9.177
  C      596.816      86.867     -10.122
  C      597.091      87.279     -11.483
  O      597.306      86.519     -12.430
  N      596.630      85.624      -9.587
  C      596.394      85.849      -8.305
  N      596.379      87.191      -8.003
  O      591.668      83.833      -2.667
  O      592.687      83.152      -4.929
  H      595.754      90.140      -5.795
  H      592.003      82.455      -4.901
  H      597.195      88.992     -12.571
  H      596.227      85.082      -7.563
  H      597.080      88.468      -6.552
  H      594.424      88.964      -7.333
  H      596.830      91.188     -11.882
  H      593.698      86.732      -6.667
  H      596.638      91.528     -10.192
  H      595.225      87.262      -4.038
  H      594.524      84.671      -5.504
  H      595.565      84.806      -4.063
  P      591.510      87.162      -5.109
  C      591.326      87.818      -7.607
  O      590.721      87.856      -6.329
  O      590.786      87.165      -3.816
  O      591.802      85.706      -5.700
  H      592.088      85.061      -5.001
  H      590.695      88.313      -8.315
  H      591.466      86.800      -7.905
  H      592.274      88.312      -7.568

 6  7  8  9  10  11  12  13  14  15  26  29  33  34 0
 6-311+G(2d,p)
 ****
 36  38  39  40  41 0
 6-311+G(2d,p)
 ****
 1  2  3  4  5  16  17  18  19  20  21  22  23  24  25 0
 3-21G
 ****
 27  28  30  31  32  35  37  42  43  44  45  46  47 0
 3-21G
 ****
 48  49 0
 3-21G
 ****


