%nproc=1
%NoSave
%Mem=1900MB
#P OB98/GEN NMR

erre ene a

0 1
  C      -75.990    -334.786    -434.875
  O      -76.721    -334.396    -433.719
  P      -78.295    -334.126    -433.890
  C      -78.841    -336.607    -433.304
  O      -78.973    -335.544    -434.242
  C      -80.066    -336.692    -432.396
  O      -81.259    -336.811    -433.229
  C      -80.059    -337.880    -431.419
  O      -80.701    -337.444    -430.222
  C      -80.922    -338.896    -432.162
  O      -81.409    -339.950    -431.344
  C      -81.982    -337.971    -432.757
  N      -86.045    -340.847    -433.947
  C      -85.614    -340.341    -432.768
  N      -84.528    -339.578    -432.527
  C      -83.855    -339.331    -433.669
  C      -84.165    -339.791    -434.936
  C      -85.320    -340.589    -435.060
  N      -85.764    -341.108    -436.264
  N      -83.234    -339.360    -435.863
  C      -82.377    -338.649    -435.158
  N      -82.720    -338.592    -433.837
  O      -78.377    -333.325    -435.270
  O      -78.938    -333.376    -432.763
  H      -81.919    -340.589    -431.878
  H      -79.056    -332.625    -435.232
  H      -86.218    -340.583    -431.895
  H      -81.486    -338.173    -435.558
  H      -82.709    -337.637    -432.001
  H      -80.322    -339.361    -432.952
  H      -79.058    -338.244    -431.179
  H      -80.150    -335.743    -431.835
  H      -77.953    -336.433    -432.679
  H      -86.480    -341.824    -436.211
  H      -85.111    -341.083    -437.043
  H      -78.681    -337.552    -433.848
  P      -80.351    -338.185    -428.840
  C      -79.035    -336.161    -427.934
  O      -78.961    -337.501    -428.374
  O      -79.849    -339.607    -429.371
  O      -81.453    -338.242    -427.835
  H      -79.173    -339.511    -430.070
  H      -78.051    -335.861    -427.562
  H      -79.768    -336.068    -427.118
  H      -79.312    -335.509    -428.766
  H      -74.962    -334.931    -434.615
  H      -76.065    -334.021    -435.620
  H      -76.392    -335.700    -435.260

 3  4  5  6  7  8  9  10  11  12  22  25  29  30  31  32 0
 6-311+G(2d,p)
 ****
 33  36  37 0
 6-311+G(2d,p)
 ****
 1  2  13  14  15  16  17  18  19  20  21  23  24  26 0
 3-21G
 ****
 27  28  34  35  38  39  40  41  42  43  44  45  46  47  48 0
 3-21G
 ****


