%nproc=1
%NoSave
%Mem=1900MB
#P OB98/GEN NMR

erre ene a

0 1
  C     -567.562     691.891    -180.377
  O     -566.818     691.422    -179.276
  H     -568.185     691.087    -180.785
  H     -568.224     692.698    -180.041
  H     -566.896     692.278    -181.151
  P     -565.815     690.198    -179.548
  C     -567.791     688.563    -179.123
  O     -566.714     688.933    -179.981
  C     -567.943     687.060    -179.098
  O     -566.635     686.478    -178.752
  C     -568.972     686.520    -178.062
  O     -569.962     685.737    -178.736
  C     -568.175     685.608    -177.147
  O     -568.865     684.407    -176.804
  C     -566.905     685.299    -177.958
  N     -564.646     681.589    -175.317
  C     -565.495     681.551    -176.362
  N     -565.975     682.578    -177.087
  C     -565.467     683.743    -176.662
  C     -564.576     683.947    -175.626
  C     -564.161     682.801    -174.910
  N     -563.337     682.856    -173.805
  N     -564.303     685.296    -175.460
  C     -565.042     685.898    -176.368
  N     -565.790     685.007    -177.098
  O     -565.306     689.808    -178.082
  O     -564.677     690.506    -180.464
  H     -569.802     684.655    -176.654
  H     -564.326     689.721    -178.089
  H     -565.841     680.561    -176.641
  H     -565.123     686.972    -176.521
  H     -567.056     684.453    -178.649
  H     -567.924     686.150    -176.233
  H     -569.446     687.329    -177.503
  H     -568.186     686.695    -180.097
  H     -568.721     689.010    -179.497
  H     -563.190     681.997    -173.302
  H     -563.065     683.759    -173.449
  H     -567.601     688.976    -178.121
  P     -571.278     686.516    -179.251
  C     -572.861     685.444    -177.482
  O     -572.278     686.642    -178.008
  O     -571.989     685.445    -180.191
  O     -570.971     687.792    -179.977
  H     -572.523     685.897    -180.879
  H     -573.501     685.690    -176.661
  H     -572.086     684.788    -177.146
  H     -573.432     684.960    -178.247

 6  7  8  9  10  11  12  13  14  15  25  28  32  33  34  35 0
 6-311+G(2d,p)
 ****
 36  39  40 0
 6-311+G(2d,p)
 ****
 1  2  3  4  5  16  17  18  19  20  21  22  23  24 0
 3-21G
 ****
 26  27  29  30  31  37  38  41  42  43  44  45  46  47  48 0
 3-21G
 ****


