%nproc=1
%NoSave
%Mem=1900MB
#P OB98/GEN NMR

erre ene a

0 1
  C     -393.105    -236.819     -49.547
  O     -394.037    -235.884     -50.070
  P     -395.491    -236.428     -50.478
  C     -396.808    -234.149     -50.405
  O     -396.235    -235.195     -51.182
  C     -397.308    -233.027     -51.322
  O     -396.186    -232.313     -51.880
  C     -398.122    -233.504     -52.518
  O     -399.444    -233.855     -52.150
  C     -398.015    -232.294     -53.445
  O     -398.954    -231.282     -53.050
  C     -396.575    -231.819     -53.180
  N     -395.629    -232.245     -54.212
  C     -395.850    -231.741     -55.494
  O     -396.777    -230.980     -55.767
  N     -394.971    -232.159     -56.456
  C     -393.959    -233.063     -56.288
  O     -393.229    -233.436     -57.198
  C     -393.798    -233.586     -54.921
  C     -394.625    -233.158     -53.963
  O     -396.173    -236.555     -49.040
  O     -395.440    -237.692     -51.271
  H     -395.789    -235.932     -48.400
  H     -398.699    -230.464     -53.523
  H     -395.096    -231.791     -57.389
  H     -393.011    -234.311     -54.749
  H     -394.526    -233.540     -52.955
  H     -396.542    -230.727     -53.116
  H     -398.226    -232.550     -54.489
  H     -397.631    -234.369     -52.983
  H     -397.890    -232.326     -50.712
  H     -396.048    -233.758     -49.727
  H     -397.634    -234.558     -49.812
  P     -400.153    -235.006     -53.024
  C     -401.583    -235.760     -50.965
  O     -401.554    -235.316     -52.305
  O     -399.240    -236.271     -52.669
  O     -400.236    -234.689     -54.480
  H     -399.007    -236.319     -51.724
  H     -402.578    -235.571     -50.556
  H     -400.845    -235.235     -50.355
  H     -401.386    -236.838     -50.936
  H     -392.186    -236.319     -49.321
  H     -392.925    -237.586     -50.271
  H     -393.501    -237.257     -48.655

 3  4  5  6  7  8  9  10  11  12  13  24  28  29  30  31  32 0
 6-311+G(2d,p)
 ****
 33  34 0
 6-311+G(2d,p)
 ****
 1  2  14  15  16  17  18  19  20  21  22  23  25  26  27 0
 3-21G
 ****
 35  36  37  38  39  40  41  42  43  44  45 0
 3-21G
 ****


