%nproc=1
%NoSave
%Mem=1900MB
#P OB98/GEN NMR

erre ene a

0 1
  C      187.067    -161.911    -117.445
  O      188.072    -162.379    -116.567
  H      186.746    -162.739    -118.082
  H      187.445    -161.105    -118.079
  H      186.204    -161.557    -116.873
  P      188.886    -161.296    -115.705
  C      187.859    -162.305    -113.561
  O      188.058    -161.125    -114.337
  C      188.793    -162.327    -112.349
  O      188.542    -161.184    -111.507
  C      188.599    -163.536    -111.447
  O      189.014    -164.758    -112.021
  C      189.218    -163.072    -110.137
  O      190.625    -163.280    -110.069
  C      188.918    -161.552    -110.164
  N      187.894    -161.181    -109.192
  C      188.359    -160.820    -107.932
  O      189.551    -160.827    -107.620
  N      187.399    -160.487    -107.015
  C      186.052    -160.530    -107.220
  O      185.240    -160.260    -106.343
  C      185.619    -160.945    -108.565
  C      186.548    -161.247    -109.478
  O      189.181    -160.001    -116.399
  O      190.194    -162.088    -115.239
  H      191.008    -162.934    -110.898
  H      190.895    -161.466    -114.930
  H      187.718    -160.213    -106.100
  H      184.557    -160.993    -108.760
  H      186.252    -161.557    -110.477
  H      189.824    -160.982    -109.928
  H      188.777    -163.586    -109.281
  H      187.527    -163.647    -111.256
  H      189.827    -162.264    -112.710
  H      188.080    -163.165    -114.201
  H      186.814    -162.362    -113.240
  P      188.058    -166.028    -112.173
  C      187.812    -165.968    -114.757
  O      187.169    -165.832    -113.497
  O      187.392    -166.520    -110.928
  O      189.108    -167.162    -112.636
  H      188.812    -168.011    -112.254
  H      187.099    -165.812    -115.540
  H      188.225    -166.951    -114.842
  H      188.595    -165.244    -114.838

 6  7  8  9  10  11  12  13  14  15  16  26  31  32  33  34  35 0
 6-311+G(2d,p)
 ****
 36  37 0
 6-311+G(2d,p)
 ****
 1  2  3  4  5  17  18  19  20  21  22  23  24  25 0
 3-21G
 ****
 27  28  29  30  38  39  40  41  42  43  44  45 0
 3-21G
 ****


