%nproc=1
%NoSave
%Mem=1900MB
#P OB98/GEN NMR

erre ene a

0 1
  C      368.803    -509.181    1082.261
  O      367.621    -508.447    1082.457
  H      369.663    -508.530    1082.417
  H      368.851    -509.545    1081.223
  H      368.872    -510.016    1082.942
  P      366.215    -509.175    1082.242
  C      365.120    -508.549    1084.503
  O      365.721    -509.599    1083.717
  C      365.618    -508.554    1085.926
  O      367.020    -508.255    1085.950
  C      364.899    -507.518    1086.833
  O      364.531    -508.151    1088.059
  C      365.994    -506.497    1087.090
  O      365.771    -505.762    1088.280
  C      367.245    -507.377    1087.048
  N      368.452    -506.575    1086.906
  C      368.839    -505.848    1088.034
  O      368.188    -505.904    1089.095
  N      369.957    -505.055    1087.958
  C      370.556    -504.946    1086.839
  N      371.674    -504.108    1086.813
  C      370.198    -505.653    1085.638
  C      369.132    -506.451    1085.715
  O      366.207    -510.275    1081.237
  O      365.194    -507.989    1081.869
  H      366.603    -505.265    1088.523
  H      364.415    -508.369    1081.392
  H      370.737    -505.524    1084.680
  H      368.763    -507.049    1084.849
  H      367.327    -507.989    1087.985
  H      366.013    -505.768    1086.262
  H      364.010    -507.067    1086.366
  H      365.483    -509.568    1086.332
  H      371.890    -503.632    1087.695
  H      364.005    -508.687    1084.448
  H      372.217    -503.902    1085.992
  H      365.355    -507.607    1084.012
  P      363.249    -509.134    1087.976
  C      364.454    -511.346    1088.646
  O      363.763    -510.609    1087.630
  O      362.478    -508.641    1086.660
  O      362.372    -509.047    1089.192
  H      361.643    -508.203    1086.916
  H      364.731    -512.306    1088.264
  H      363.813    -511.471    1089.494
  H      365.333    -510.811    1088.939

 6  7  8  9  10  11  12  13  14  15  16  26  30  31  32  33  35 0
 6-311+G(2d,p)
 ****
 37  38 0
 6-311+G(2d,p)
 ****
 1  2  3  4  5  17  18  19  20  21  22  23  24  25 0
 3-21G
 ****
 27  28  29  34  36  39  40  41  42  43  44  45  46 0
 3-21G
 ****


