%nproc=1
%NoSave
%Mem=1900MB
#P OB98/GEN NMR

erre ene a

0 1
  C     -168.628       3.202     604.107
  O     -167.881       3.079     605.301
  H     -169.651       2.886     604.291
  H     -168.195       2.571     603.329
  H     -168.639       4.247     603.770
  P     -166.409       3.711     605.330
  C     -165.188       1.945     606.799
  O     -165.738       3.253     606.722
  C     -164.577       1.717     608.175
  O     -163.494       2.677     608.363
  C     -165.561       1.915     609.346
  O     -165.229       0.952     610.374
  C     -165.245       3.308     609.847
  O     -165.611       3.537     611.189
  C     -163.717       3.352     609.619
  N     -163.203       4.714     609.591
  C     -162.258       5.064     610.568
  O     -161.777       4.293     611.378
  N     -161.871       6.380     610.559
  C     -162.346       7.360     609.728
  O     -161.967       8.532     609.783
  C     -163.337       6.930     608.734
  C     -163.724       5.655     608.711
  O     -166.694       5.272     605.559
  O     -165.573       3.452     604.122
  H     -166.793       5.730     604.700
  H     -166.589       3.473     611.251
  H     -161.198       6.657     611.257
  H     -163.745       7.680     608.057
  H     -164.458       5.309     607.999
  H     -163.210       2.776     610.404
  H     -165.750       4.049     609.212
  H     -166.612       1.796     609.066
  H     -164.121       0.715     608.209
  H     -164.410       1.824     606.032
  H     -165.986       1.203     606.609
  P     -166.457       0.214     611.104
  C     -165.834      -0.202     613.616
  O     -165.790      -0.655     612.275
  O     -166.872      -0.851     609.983
  O     -167.539       1.142     611.516
  H     -166.109      -1.206     609.487
  H     -165.340      -0.910     614.248
  H     -166.853      -0.098     613.924
  H     -165.341       0.745     613.689

 6  7  8  9  10  11  12  13  14  15  16  27  31  32  33  34  35 0
 6-311+G(2d,p)
 ****
 36  37 0
 6-311+G(2d,p)
 ****
 1  2  3  4  5  17  18  19  20  21  22  23  24  25 0
 3-21G
 ****
 26  28  29  30  38  39  40  41  42  43  44  45 0
 3-21G
 ****


