%nproc=1
%NoSave
%Mem=1900MB
#P OB98/GEN NMR

erre ene a

0 1
  C     -568.991     -21.347    -634.235
  O     -568.725     -20.024    -633.809
  H     -570.069     -21.517    -634.204
  H     -568.503     -22.068    -633.569
  H     -568.643     -21.488    -635.261
  P     -567.185     -19.586    -633.748
  C     -567.265     -18.778    -631.291
  O     -566.781     -19.756    -632.204
  C     -566.488     -18.850    -629.973
  O     -566.777     -20.081    -629.295
  C     -564.975     -18.791    -630.137
  O     -564.539     -17.444    -630.252
  C     -564.521     -19.408    -628.823
  O     -564.572     -18.412    -627.777
  C     -565.587     -20.484    -628.563
  N     -563.889     -25.072    -627.005
  C     -563.977     -23.886    -626.363
  N     -564.387     -22.693    -626.857
  C     -564.740     -22.809    -628.149
  C     -564.704     -23.954    -628.932
  C     -564.257     -25.129    -628.309
  N     -564.167     -26.343    -628.960
  N     -565.132     -23.688    -630.210
  C     -565.485     -22.422    -630.185
  N     -565.230     -21.830    -628.974
  O     -566.861     -18.271    -634.375
  O     -566.477     -20.856    -634.432
  H     -564.555     -18.901    -626.929
  H     -566.898     -21.683    -634.126
  H     -563.675     -23.884    -625.323
  H     -565.945     -21.880    -631.015
  H     -565.857     -20.548    -627.502
  H     -563.496     -19.774    -628.858
  H     -564.626     -19.414    -630.964
  H     -566.840     -18.025    -629.334
  H     -568.331     -18.935    -631.095
  H     -563.661     -27.079    -628.494
  H     -564.319     -26.352    -629.960
  H     -567.138     -17.796    -631.754
  P     -562.986     -17.091    -630.450
  C     -563.231     -15.425    -628.503
  O     -562.502     -16.534    -629.028
  O     -562.695     -16.218    -631.623
  O     -562.267     -18.519    -630.545
  H     -561.369     -18.417    -630.924
  H     -562.819     -15.143    -627.556
  H     -564.257     -15.700    -628.378
  H     -563.163     -14.600    -629.181

 6  7  8  9  10  11  12  13  14  15  25  28  32  33  34  35 0
 6-311+G(2d,p)
 ****
 36  39  40 0
 6-311+G(2d,p)
 ****
 1  2  3  4  5  16  17  18  19  20  21  22  23  24 0
 3-21G
 ****
 26  27  29  30  31  37  38  41  42  43  44  45  46  47 0
 3-21G
 ****
 48 0
 3-21G
 ****


