%nproc=1
%NoSave
%Mem=1900MB
#P OB98/GEN NMR

erre ene a

0 1
  C      806.201     598.972     207.672
  O      806.070     600.142     208.455
  P      806.157     599.988     210.045
  C      804.146     601.632     210.393
  O      804.698     600.337     210.629
  C      802.655     601.633     210.717
  O      801.943     600.840     209.749
  C      802.288     601.050     212.071
  O      802.590     601.959     213.132
  C      800.804     600.777     211.877
  O      800.056     601.983     212.017
  C      800.759     600.306     210.415
  N      797.823     596.106     210.104
  C      797.519     597.409     210.258
  N      798.343     598.473     210.345
  C      799.630     598.052     210.261
  C      800.095     596.764     210.151
  C      799.132     595.757     210.039
  N      799.445     594.407     209.883
  N      801.468     596.731     210.101
  C      801.844     597.997     210.210
  N      800.758     598.844     210.306
  O      807.035     601.275     210.489
  O      806.765     598.706     210.544
  H      799.921     602.118     212.980
  H      807.602     601.064     211.260
  H      796.438     597.653     210.287
  H      802.861     598.365     210.216
  H      799.880     600.664     209.872
  H      800.407     600.052     212.598
  H      802.833     600.083     212.227
  H      802.286     602.672     210.630
  H      804.297     601.893     209.344
  H      798.701     593.749     209.990
  H      800.421     594.146     209.973
  H      804.689     602.352     211.006
  P      802.731     601.359     214.613
  C      803.418     603.696     215.436
  O      802.485     602.627     215.560
  O      804.314     601.136     214.731
  O      801.875     600.152     214.894
  H      804.815     601.918     214.441
  H      803.107     604.528     216.094
  H      803.441     604.069     214.395
  H      804.406     603.372     215.734
  H      806.123     599.226     206.635
  H      805.425     598.282     207.930
  H      807.154     598.523     207.858

 3  4  5  6  7  8  9  10  11  12  22  25  29  30  31  32 0
 6-311+G(2d,p)
 ****
 33  36  37 0
 6-311+G(2d,p)
 ****
 1  2  13  14  15  16  17  18  19  20  21  23  24  26 0
 3-21G
 ****
 27  28  34  35  38  39  40  41  42  43  44  45  46  47  48 0
 3-21G
 ****


