%nproc=1
%NoSave
%Mem=1900MB
#P OB98/GEN NMR

erre ene a

0 1
  C     -957.455    -256.596    -553.950
  O     -956.357    -256.768    -553.076
  H     -958.247    -257.288    -553.655
  H     -957.154    -256.824    -554.977
  H     -957.833    -255.571    -553.892
  P     -955.144    -255.730    -553.227
  C     -953.172    -257.386    -553.763
  O     -953.796    -256.513    -552.827
  C     -951.763    -257.740    -553.292
  O     -950.974    -256.560    -553.083
  C     -951.725    -258.447    -551.941
  O     -952.204    -259.772    -552.011
  C     -950.248    -258.339    -551.619
  O     -949.484    -259.321    -552.331
  C     -949.923    -256.911    -552.138
  N     -949.804    -255.939    -551.064
  C     -948.637    -256.020    -550.298
  O     -947.783    -256.867    -550.552
  N     -948.489    -255.155    -549.240
  C     -949.406    -254.276    -548.988
  N     -949.200    -253.452    -547.920
  C     -950.639    -254.136    -549.786
  C     -950.778    -255.003    -550.791
  O     -955.365    -254.754    -551.983
  O     -955.057    -255.044    -554.548
  H     -949.813    -260.193    -552.036
  H     -955.440    -255.211    -551.133
  H     -951.375    -253.384    -549.546
  H     -951.651    -254.969    -551.428
  H     -948.979    -256.915    -552.704
  H     -950.049    -258.488    -550.553
  H     -952.282    -257.861    -551.197
  H     -951.284    -258.341    -554.075
  H     -948.350    -253.590    -547.382
  H     -953.147    -256.934    -554.760
  H     -949.861    -252.755    -547.608
  H     -953.787    -258.293    -553.828
  P     -953.208    -260.335    -550.888
  C     -951.761    -262.465    -550.979
  O     -953.082    -261.936    -550.930
  O     -954.608    -259.819    -550.969
  O     -952.467    -259.977    -549.514
  H     -951.579    -260.375    -549.409
  H     -951.805    -263.534    -551.004
  H     -951.218    -262.150    -550.112
  H     -951.266    -262.108    -551.858

 6  7  8  9  10  11  12  13  14  15  16  26  30  31  32  33  35 0
 6-311+G(2d,p)
 ****
 37  38 0
 6-311+G(2d,p)
 ****
 1  2  3  4  5  17  18  19  20  21  22  23  24  25 0
 3-21G
 ****
 27  28  29  34  36  39  40  41  42  43  44  45  46 0
 3-21G
 ****


