%nproc=1
%NoSave
%Mem=1900MB
#P OB98/GEN NMR

erre ene a

0 1
  C      271.046      33.954    -469.182
  O      269.830      33.778    -468.450
  P      268.638      34.803    -468.776
  C      269.844      37.100    -468.642
  O      269.267      36.108    -469.481
  C      269.481      38.522    -469.098
  O      269.917      38.758    -470.465
  C      267.976      38.816    -469.044
  O      267.815      40.192    -468.711
  C      267.538      38.613    -470.490
  O      266.308      39.280    -470.754
  C      268.761      39.170    -471.233
  N      268.848      38.698    -472.621
  C      268.004      39.312    -473.553
  O      267.187      40.155    -473.178
  N      268.073      38.935    -474.869
  C      268.889      37.979    -475.218
  N      268.915      37.649    -476.540
  C      269.752      37.260    -474.265
  C      269.685      37.671    -472.997
  O      268.194      35.326    -467.330
  O      267.493      34.186    -469.503
  H      266.486      40.251    -470.781
  H      267.225      35.267    -467.234
  H      270.395      36.452    -474.599
  H      270.282      37.201    -472.221
  H      268.746      40.260    -471.252
  H      267.408      37.536    -470.705
  H      267.435      38.186    -468.327
  H      270.016      39.234    -468.457
  H      268.313      38.173    -477.162
  H      270.935      36.996    -468.637
  H      269.499      36.917    -476.925
  H      269.523      36.926    -467.604
  P      267.797      40.609    -467.158
  C      265.559      41.786    -467.651
  O      266.240      40.849    -466.826
  O      268.350      42.117    -467.224
  O      268.572      39.784    -466.186
  H      268.443      42.468    -466.315
  H      264.495      41.760    -467.399
  H      265.675      41.519    -468.711
  H      265.943      42.792    -467.470
  H      271.757      33.215    -468.876
  H      271.441      34.930    -468.989
  H      270.851      33.849    -470.229

 3  4  5  6  7  8  9  10  11  12  13  21  23  27  28  29  30  32 0
 6-311+G(2d,p)
 ****
 34  35 0
 6-311+G(2d,p)
 ****
 1  2  14  15  16  17  18  19  20  22  24  25  26 0
 3-21G
 ****
 31  33  36  37  38  39  40  41  42  43  44  45  46 0
 3-21G
 ****


