%nproc=1
%NoSave
%Mem=1900MB
#P OB98/GEN NMR

erre ene a

0 1
  C       14.909     -94.930     -61.515
  O       14.521     -96.244     -61.869
  H       14.546     -94.240     -62.279
  H       15.999     -94.861     -61.466
  H       14.471     -94.656     -60.553
  P       14.941     -97.413     -60.854
  C       12.933     -98.819     -61.685
  O       14.342     -98.745     -61.516
  C       12.524    -100.212     -62.158
  O       12.793    -100.370     -63.562
  C       13.261    -101.351     -61.465
  O       12.686    -101.629     -60.198
  C       13.025    -102.484     -62.452
  O       11.703    -103.026     -62.263
  C       13.107    -101.766     -63.811
  N       16.204    -104.667     -66.699
  C       15.046    -104.949     -66.063
  N       14.300    -104.141     -65.279
  C       14.860    -102.925     -65.177
  C       16.038    -102.493     -65.769
  C       16.719    -103.423     -66.571
  N       17.896    -103.129     -67.227
  N       16.299    -101.180     -65.437
  C       15.270    -100.811     -64.702
  N       14.390    -101.841     -64.486
  O       14.607     -97.176     -59.421
  O       16.506     -97.546     -61.174
  H       11.642    -103.842     -62.796
  H       16.669     -97.443     -62.129
  H       14.666    -105.956     -66.204
  H       15.107     -99.811     -64.318
  H       12.362    -102.149     -64.517
  H       13.729    -103.307     -62.316
  H       14.335    -101.152     -61.399
  H       11.439    -100.307     -62.022
  H       12.596     -98.067     -62.406
  H       18.404    -103.897     -67.637
  H       18.340    -102.245     -67.030
  H       12.474     -98.599     -60.716
  P       13.615    -101.873     -58.915
  C       12.448    -100.075     -57.495
  O       12.740    -101.460     -57.633
  O       14.959    -101.234     -58.979
  O       13.717    -103.461     -58.787
  H       14.616    -103.723     -58.506
  H       11.864     -99.920     -56.612
  H       11.898     -99.740     -58.349
  H       13.362     -99.524     -57.420

 6  7  8  9  10  11  12  13  14  15  25  28  32  33  34  35 0
 6-311+G(2d,p)
 ****
 36  39  40 0
 6-311+G(2d,p)
 ****
 1  2  3  4  5  16  17  18  19  20  21  22  23  24 0
 3-21G
 ****
 26  27  29  30  31  37  38  41  42  43  44  45  46  47 0
 3-21G
 ****
 48 0
 3-21G
 ****


