%nproc=1
%NoSave
%Mem=1900MB
#P OB98/GEN NMR

erre ene a

0 1
  C      -91.224     410.297    -546.531
  O      -92.392     409.847    -545.844
  P      -93.160     410.946    -544.964
  C      -94.765     411.540    -546.912
  O      -93.827     412.013    -545.963
  C      -96.059     412.366    -546.852
  O      -96.743     412.219    -545.589
  C      -95.826     413.855    -547.046
  O      -95.668     414.153    -548.418
  C      -97.111     414.440    -546.449
  O      -98.181     414.446    -547.414
  C      -97.414     413.467    -545.301
  N      -98.761     416.335    -541.338
  C      -99.342     416.224    -542.589
  N     -100.469     416.951    -542.799
  N      -98.876     415.452    -543.538
  C      -97.761     414.786    -543.184
  C      -97.105     414.794    -541.965
  C      -97.624     415.648    -540.920
  O      -97.161     415.765    -539.798
  N      -96.037     413.925    -541.967
  C      -95.973     413.498    -543.221
  N      -97.034     413.928    -543.968
  O      -91.965     411.757    -544.260
  O      -94.098     410.351    -543.952
  H      -98.907     415.019    -547.085
  H      -91.959     411.552    -543.303
  H      -99.158     416.950    -540.640
  H      -95.207     412.843    -543.610
  H      -98.495     413.250    -545.241
  H      -96.966     415.483    -546.139
  H     -100.873     417.561    -542.105
  H      -94.958     414.183    -546.460
  H     -100.907     416.873    -543.706
  H      -96.726     411.985    -547.645
  H      -94.989     410.497    -546.725
  H      -94.315     411.591    -547.911
  P      -94.622     415.306    -548.821
  C      -93.055     413.870    -550.311
  O      -93.220     414.594    -549.116
  O      -94.387     416.081    -547.437
  O      -95.101     416.231    -549.889
  H      -94.399     417.041    -547.598
  H      -92.009     413.906    -550.608
  H      -93.670     414.277    -551.122
  H      -93.335     412.820    -550.142
  H      -90.798     409.484    -547.081
  H      -90.510     410.660    -545.821
  H      -91.488     411.085    -547.205

 3  4  5  6  7  8  9  10  11  12  23  26  30  31 0
 6-311+G(2d,p)
 ****
 33  35  36  37  38 0
 6-311+G(2d,p)
 ****
 1  2  13  14  15  16  17  18  19  20  21  22  24  25 0
 3-21G
 ****
 27  28  29  32  34  39  40  41  42  43  44  45  46  47  48  49 0
 3-21G
 ****


