%nproc=1
%NoSave
%Mem=1900MB
#P OB98/GEN NMR

erre ene a

0 1
  C      215.852     -23.582    -216.735
  O      216.893     -24.095    -217.539
  H      215.880     -22.489    -216.785
  H      215.994     -23.888    -215.695
  H      214.878     -23.922    -217.094
  P      216.976     -25.679    -217.777
  C      218.773     -26.144    -215.986
  O      217.419     -26.337    -216.386
  C      218.989     -26.698    -214.583
  O      218.136     -26.010    -213.641
  C      218.638     -28.172    -214.444
  O      219.630     -29.005    -215.015
  C      218.486     -28.291    -212.937
  O      219.762     -28.442    -212.300
  C      217.849     -26.932    -212.567
  N      216.411     -27.046    -212.336
  C      216.023     -27.720    -211.180
  O      216.820     -28.193    -210.373
  N      214.674     -27.885    -211.010
  C      213.714     -27.571    -211.931
  O      212.551     -27.961    -211.848
  C      214.171     -26.810    -213.101
  C      215.481     -26.594    -213.255
  O      217.765     -26.115    -218.968
  O      215.438     -26.118    -217.904
  H      215.222     -26.252    -218.849
  H      219.603     -28.294    -211.345
  H      214.388     -28.407    -210.196
  H      213.434     -26.482    -213.819
  H      215.847     -26.063    -214.129
  H      218.316     -26.523    -211.666
  H      217.871     -29.151    -212.659
  H      217.666     -28.370    -214.912
  H      220.034     -26.519    -214.292
  H      218.990     -25.069    -215.994
  H      219.431     -26.643    -216.708
  P      219.293     -30.522    -215.407
  C      220.487     -31.466    -213.337
  O      219.262     -31.391    -214.057
  O      220.121     -31.095    -216.502
  O      217.741     -30.473    -215.827
  H      217.641     -30.916    -216.692
  H      220.350     -32.066    -212.462
  H      220.793     -30.482    -213.050
  H      221.239     -31.907    -213.958

 6  7  8  9  10  11  12  13  14  15  16  27  31  32  33  34  35 0
 6-311+G(2d,p)
 ****
 36  37 0
 6-311+G(2d,p)
 ****
 1  2  3  4  5  17  18  19  20  21  22  23  24  25 0
 3-21G
 ****
 26  28  29  30  38  39  40  41  42  43  44  45 0
 3-21G
 ****


