%nproc=1
%NoSave
%Mem=1900MB
#P OB98/GEN NMR

erre ene a

0 1
  C      113.905      48.340     -89.929
  O      113.124      47.184     -89.667
  P      113.722      46.094     -88.653
  C      115.687      44.414     -88.730
  O      114.827      45.267     -89.474
  C      116.670      43.697     -89.649
  O      117.373      44.687     -90.449
  C      117.730      42.862     -88.913
  O      117.890      41.604     -89.583
  C      119.010      43.656     -89.114
  O      120.168      42.832     -89.035
  C      118.748      44.259     -90.493
  N      123.398      45.496     -92.029
  C      122.773      44.265     -92.012
  N      123.515      43.208     -92.407
  N      121.535      44.084     -91.638
  C      120.903      45.235     -91.297
  C      121.411      46.513     -91.283
  C      122.802      46.690     -91.642
  O      123.439      47.739     -91.591
  N      120.460      47.423     -90.896
  C      119.381      46.699     -90.673
  N      119.613      45.358     -90.856
  O      112.513      45.058     -88.490
  O      114.161      46.625     -87.333
  H      120.939      43.406     -89.200
  H      112.284      44.965     -87.545
  H      124.359      45.576     -92.310
  H      118.427      47.094     -90.349
  H      118.842      43.489     -91.272
  H      119.078      44.429     -88.340
  H      124.462      43.281     -92.742
  H      117.511      42.690     -87.854
  H      123.067      42.299     -92.423
  H      116.100      43.070     -90.346
  H      115.085      43.669     -88.199
  H      116.232      45.015     -87.994
  P      118.178      40.336     -88.640
  C      120.357      39.366     -87.593
  O      119.701      40.478     -88.172
  O      118.206      39.110     -89.668
  O      117.172      40.149     -87.553
  H      117.989      38.276     -89.210
  H      119.768      38.449     -87.680
  H      120.538      39.571     -86.536
  H      121.316      39.218     -88.097
  H      113.385      48.973     -90.617
  H      114.843      48.048     -90.352
  H      114.075      48.870     -89.015

 3  4  5  6  7  8  9  10  11  12  23  26  30  31  33  0
 6-311+G(2d,p)
 ****
 35  36  37  38 0
 6-311+G(2d,p)
 ****
 1  2  13  14  15  16  17  18  19  20  21  22  24  25  27  28  29 0
 3-21G
 ****
 32  34  39  40  41  42  43  44  45  46  47  48  49 0
 3-21G
 ****


