%nproc=1
%NoSave
%Mem=1900MB
#P OB98/GEN NMR

erre ene a

0 1
  C        0.289    -806.448     541.305
  O        1.439    -805.640     541.173
  H       -0.385    -805.986     542.027
  H        0.570    -807.442     541.670
  H       -0.225    -806.538     540.345
  P        2.565    -806.127     540.132
  C        3.703    -807.780     541.793
  O        3.810    -806.571     541.052
  C        4.586    -807.720     543.042
  O        5.981    -807.762     542.637
  C        4.380    -806.456     543.877
  O        4.353    -806.800     545.263
  C        5.593    -805.600     543.561
  O        5.908    -804.692     544.620
  C        6.663    -806.657     543.262
  N        7.718    -806.134     542.397
  C        8.804    -805.514     543.032
  O        8.835    -805.428     544.260
  N        9.805    -804.975     542.265
  C        9.696    -804.985     540.969
  N       10.709    -804.408     540.263
  C        8.547    -805.580     540.259
  C        7.610    -806.129     541.026
  O        3.054    -804.757     539.473
  O        2.117    -807.151     539.147
  H        5.941    -805.203     545.455
  H        3.597    -804.917     538.663
  H        8.495    -805.548     539.177
  H        6.727    -806.588     540.587
  H        7.119    -807.022     544.192
  H        5.393    -805.004     542.659
  H        3.457    -805.931     543.628
  H        4.412    -808.628     543.637
  H       11.479    -804.003     540.789
  H        4.015    -808.616     541.157
  H       10.716    -804.336     539.257
  H        2.657    -807.924     542.091
  P        3.045    -807.597     545.765
  C        2.292    -805.578     547.202
  O        2.603    -806.960     547.168
  O        3.612    -809.043     546.152
  O        1.966    -807.665     544.735
  H        3.441    -809.680     545.433
  H        2.016    -805.299     548.197
  H        1.477    -805.379     546.537
  H        3.147    -805.012     546.897

 6  7  8  9  10  11  12  13  14  15  16  26  30  31  32  33  35 0
 6-311+G(2d,p)
 ****
 37  38 0
 6-311+G(2d,p)
 ****
 1  2  3  4  5  17  18  19  20  21  22  23  24  25 0
 3-21G
 ****
 27  28  29  34  36  39  40  41  42  43  44  45  46 0
 3-21G
 ****


