%nproc=1
%NoSave
%Mem=1900MB
#P OB98/GEN NMR

erre ene a

0 1
  C     -126.534     108.082     -26.763
  O     -126.939     107.373     -27.937
  P     -125.960     107.455     -29.203
  C     -125.607     104.979     -29.902
  O     -125.076     106.119     -29.239
  C     -125.932     103.884     -28.887
  O     -126.965     104.298     -27.967
  C     -126.453     102.603     -29.525
  O     -125.402     101.872     -30.133
  C     -127.085     101.919     -28.317
  O     -126.077     101.283     -27.514
  C     -127.682     103.111     -27.551
  N     -132.347     102.852     -25.468
  C     -131.119     102.601     -24.965
  N     -129.925     102.691     -25.586
  C     -130.079     103.099     -26.856
  C     -131.265     103.397     -27.505
  C     -132.445     103.255     -26.756
  N     -133.698     103.496     -27.273
  N     -131.025     103.779     -28.809
  C     -129.717     103.692     -28.950
  N     -129.101     103.296     -27.794
  O     -124.914     108.592     -28.788
  O     -126.659     107.788     -30.480
  H     -125.341     101.920     -27.414
  H     -125.074     109.400     -29.311
  H     -131.091     102.284     -23.926
  H     -129.175     103.903     -29.863
  H     -127.552     103.014     -26.467
  H     -127.816     101.153     -28.592
  H     -127.223     102.837     -30.270
  H     -125.021     103.670     -28.313
  H     -124.892     104.601     -30.637
  H     -134.496     103.295     -26.693
  H     -133.788     103.712     -28.255
  H     -126.500     105.281     -30.459
  P     -125.180     102.056     -31.710
  C     -122.721     102.784     -31.568
  O     -124.054     103.199     -31.804
  O     -126.507     102.837     -32.133
  O     -124.892     100.799     -32.456
  H     -126.711     103.564     -31.518
  H     -122.060     103.645     -31.696
  H     -122.435     102.006     -32.280
  H     -122.621     102.411     -30.545
  H     -127.267     107.949     -25.995
  H     -126.440     109.123     -26.990
  H     -125.592     107.704     -26.426

 3  4  5  6  7  8  9  10  11  12  22  25  29  30  31  32 0
 6-311+G(2d,p)
 ****
 33  36  37 0
 6-311+G(2d,p)
 ****
 1  2  13  14  15  16  17  18  19  20  21  23  24  26 0
 3-21G
 ****
 27  28  34  35  38  39  40  41  42  43  44  45  46  47  48 0
 3-21G
 ****


