%nproc=1
%NoSave
%Mem=1900MB
#P OB98/GEN NMR

erre ene a

0 1
  C      246.926    -318.893     117.643
  O      247.215    -317.571     118.057
  H      246.609    -318.871     116.599
  H      246.112    -319.301     118.250
  H      247.814    -319.525     117.733
  P      247.877    -317.400     119.513
  C      246.155    -318.921     120.780
  O      247.481    -318.726     120.321
  C      246.154    -319.680     122.109
  O      244.785    -319.821     122.561
  C      246.762    -321.075     122.023
  O      247.475    -321.338     123.232
  C      245.551    -321.988     121.930
  O      245.846    -323.313     122.374
  C      244.524    -321.222     122.775
  N      243.148    -321.568     122.420
  C      242.857    -322.931     122.289
  O      243.743    -323.772     122.446
  N      241.584    -323.308     121.940
  C      240.694    -322.401     121.673
  N      239.459    -322.836     121.311
  C      240.972    -320.952     121.747
  C      242.200    -320.614     122.133
  O      246.951    -316.265     120.159
  O      249.332    -317.073     119.489
  H      246.275    -323.248     123.256
  H      246.006    -316.377     119.964
  H      240.202    -320.235     121.499
  H      242.488    -319.571     122.221
  H      244.668    -321.430     123.841
  H      245.213    -322.054     120.887
  H      247.427    -321.209     121.170
  H      246.669    -319.065     122.857
  H      239.313    -323.838     121.254
  H      245.574    -319.482     120.042
  H      238.708    -322.222     121.032
  H      245.691    -317.936     120.904
  P      249.072    -321.192     123.247
  C      249.715    -323.650     122.802
  O      249.707    -322.321     122.301
  O      249.699    -321.070     124.595
  O      249.318    -319.855     122.390
  H      250.049    -319.358     122.808
  H      250.162    -324.301     122.080
  H      248.710    -323.965     122.993
  H      250.279    -323.685     123.711

 6  7  8  9  10  11  12  13  14  15  16  26  30  31  32  33  35 0
 6-311+G(2d,p)
 ****
 37  38 0
 6-311+G(2d,p)
 ****
 1  2  3  4  5  17  18  19  20  21  22  23  24  25 0
 3-21G
 ****
 27  28  29  34  36  39  40  41  42  43  44  45  46 0
 3-21G
 ****


