%nproc=1
%NoSave
%Mem=1900MB
#P OB98/GEN NMR

erre ene a

0 1
  C     -133.594    -232.178     -26.268
  O     -134.318    -231.576     -25.210
  H     -133.053    -233.045     -25.877
  H     -132.871    -231.467     -26.676
  H     -134.275    -232.513     -27.056
  P     -135.358    -230.432     -25.622
  C     -137.663    -230.422     -26.877
  O     -136.447    -231.104     -26.600
  C     -137.945    -230.445     -28.377
  O     -136.981    -229.648     -29.092
  C     -137.822    -231.816     -29.016
  O     -138.893    -232.672     -28.678
  C     -137.791    -231.441     -30.491
  O     -139.110    -231.272     -31.024
  C     -137.030    -230.092     -30.469
  N     -135.710    -230.208     -31.062
  C     -135.683    -230.212     -32.464
  O     -136.730    -230.102     -33.103
  N     -134.475    -230.378     -33.095
  C     -133.399    -230.553     -32.394
  N     -132.242    -230.746     -33.083
  C     -133.386    -230.557     -30.918
  C     -134.566    -230.381     -30.321
  O     -134.494    -229.520     -26.611
  O     -135.961    -229.692     -24.477
  H     -139.478    -232.173     -31.136
  H     -134.026    -230.020     -27.298
  H     -132.460    -230.694     -30.380
  H     -134.648    -230.370     -29.240
  H     -137.589    -229.327     -31.023
  H     -137.302    -232.211     -31.094
  H     -136.854    -232.268     -28.759
  H     -138.943    -230.016     -28.543
  H     -132.307    -230.792     -34.095
  H     -137.617    -229.390     -26.515
  H     -131.360    -230.969     -32.647
  H     -138.463    -230.930     -26.331
  P     -138.813    -234.251     -28.939
  C     -137.337    -236.154     -28.025
  O     -137.432    -234.758     -28.286
  O     -139.012    -234.673     -30.357
  O     -139.900    -234.842     -27.923
  H     -139.736    -234.642     -26.985
  H     -136.382    -236.372     -27.594
  H     -137.448    -236.696     -28.941
  H     -138.110    -236.443     -27.344

 6  7  8  9  10  11  12  13  14  15  16  26  30  31  32  33  35 0
 6-311+G(2d,p)
 ****
 37  38 0
 6-311+G(2d,p)
 ****
 1  2  3  4  5  17  18  19  20  21  22  23  24  25 0
 3-21G
 ****
 27  28  29  34  36  39  40  41  42  43  44  45  46 0
 3-21G
 ****


