%nproc=1
%NoSave
%Mem=1900MB
#P OB98/GEN NMR

erre ene a

0 1
  C      403.775    -516.953    -243.645
  O      404.793    -516.078    -244.148
  P      404.474    -514.505    -244.232
  C      405.582    -512.522    -243.009
  O      405.792    -513.708    -243.775
  C      406.780    -512.243    -242.092
  O      406.713    -513.006    -240.875
  C      408.119    -512.607    -242.740
  O      408.486    -511.658    -243.730
  C      409.029    -512.670    -241.513
  O      409.471    -511.351    -241.144
  C      408.074    -513.224    -240.430
  N      408.318    -514.627    -240.122
  C      408.941    -514.894    -238.896
  O      409.275    -513.973    -238.164
  N      409.162    -516.205    -238.537
  C      408.806    -517.149    -239.346
  N      409.058    -518.437    -238.936
  C      408.164    -516.930    -240.656
  C      407.959    -515.651    -240.981
  O      403.211    -514.069    -243.582
  O      404.444    -514.231    -245.807
  H      410.006    -511.464    -240.328
  H      403.819    -513.486    -245.985
  H      407.887    -517.757    -241.292
  H      407.500    -515.381    -241.936
  H      408.186    -512.651    -239.504
  H      409.916    -513.271    -241.694
  H      408.039    -513.609    -243.191
  H      406.764    -511.168    -241.851
  H      409.511    -518.571    -238.046
  H      404.678    -512.637    -242.403
  H      408.775    -519.241    -239.468
  H      405.403    -511.687    -243.696
  P      408.291    -512.072    -245.260
  C      408.636    -510.903    -247.556
  O      408.868    -510.878    -246.158
  O      406.704    -511.949    -245.461
  O      408.769    -513.442    -245.619
  H      406.395    -512.620    -246.102
  H      408.808    -509.918    -247.956
  H      407.600    -511.207    -247.777
  H      409.321    -511.606    -248.044
  H      404.136    -517.960    -243.651
  H      402.905    -516.882    -244.265
  H      403.524    -516.670    -242.644

 3  4  5  6  7  8  9  10  11  12  13  23  27  28  29  30  32 0
 6-311+G(2d,p)
 ****
 34  35 0
 6-311+G(2d,p)
 ****
 1  2  14  15  16  17  18  19  20  21  22  24  25  26 0
 3-21G
 ****
 31  33  36  37  38  39  40  41  42  43  44  45  46 0
 3-21G
 ****


