%nproc=1
%NoSave
%Mem=1900MB
#P OB98/GEN NMR

erre ene a

0 1
  C     -891.140    -896.710    -895.460
  O     -891.620    -897.550    -896.480
  P     -892.600    -898.740    -895.970
  C     -894.920    -898.140    -896.930
  O     -894.090    -898.150    -895.790
  C     -896.100    -897.170    -896.790
  O     -897.110    -897.710    -895.970
  C     -895.650    -895.800    -896.200
  O     -896.480    -894.760    -896.770
  C     -896.070    -895.940    -894.710
  O     -896.150    -894.690    -894.120
  C     -897.360    -896.770    -894.870
  N     -897.700    -897.420    -893.660
  C     -899.020    -897.200    -893.130
  O     -899.740    -896.390    -893.670
  N     -899.420    -897.900    -892.010
  C     -898.600    -898.720    -891.420
  N     -899.040    -899.350    -890.300
  C     -897.200    -898.920    -891.870
  C     -896.850    -898.300    -892.980
  O     -892.110    -899.050    -894.490
  O     -892.490    -899.970    -896.860
  H     -896.870    -894.140    -894.660
  H     -892.000    -899.990    -894.380
  H     -896.540    -899.600    -891.340
  H     -895.850    -898.390    -893.440
  H     -898.220    -896.110    -895.170
  H     -895.270    -896.560    -894.180
  H     -894.600    -895.540    -896.330
  H     -896.530    -896.970    -897.780
  H     -900.000    -899.170    -890.040
  H     -895.340    -899.140    -897.130
  H     -898.470    -900.000    -889.740
  H     -894.300    -897.860    -897.800
  P     -896.000    -894.160    -898.210
  C     -898.360    -894.740    -899.140
  O     -896.980    -894.910    -899.240
  O     -894.630    -894.900    -898.400
  O     -895.920    -892.690    -898.340
  H     -894.230    -894.590    -899.240
  H     -898.890    -895.170    -900.000
  H     -898.610    -893.670    -899.100
  H     -898.760    -895.210    -898.220
  H     -890.506    -895.960    -895.885
  H     -890.583    -897.289    -894.753
  H     -891.965    -896.242    -894.966

 3  4  5  6  7  8  9  10  11  12  13  21  23  27  28  29  30  32 0
 6-311+G(2d,p)
 ****
 34  35 0
 6-311+G(2d,p)
 ****
 1  2  14  15  16  17  18  19  20  22  24  25  26 0
 3-21G
 ****
 31  33  36  37  38  39  40  41  42  43  44  45  46 0
 3-21G
 ****


