%nproc=1
%NoSave
%Mem=1900MB
#P OB98/GEN NMR

erre ene a

0 1
  C      212.563      36.729     444.029
  O      212.251      37.266     442.754
  P      213.046      36.673     441.492
  C      214.479      38.515     440.340
  O      214.399      37.520     441.353
  C      214.189      39.893     440.925
  O      215.104      40.176     442.007
  C      214.350      41.050     439.942
  O      213.256      41.114     439.045
  C      214.457      42.224     440.912
  O      213.150      42.592     441.380
  C      215.284      41.619     442.061
  N      218.875      45.165     442.915
  C      217.537      45.179     443.090
  N      216.643      44.207     442.821
  C      217.262      43.122     442.326
  C      218.613      42.968     442.069
  C      219.445      44.053     442.390
  N      220.810      44.035     442.209
  N      218.875      41.720     441.535
  C      217.704      41.128     441.481
  N      216.697      41.927     441.955
  O      212.171      37.163     440.246
  O      213.223      35.184     441.505
  H      212.672      42.975     440.620
  H      212.186      36.498     439.529
  H      217.125      46.096     443.505
  H      217.533      40.125     441.106
  H      214.946      41.957     443.045
  H      214.910      43.114     440.458
  H      215.286      40.940     439.380
  H      213.166      39.883     441.335
  H      213.745      38.301     439.558
  H      221.311      44.906     442.322
  H      221.211      43.263     441.685
  H      215.480      38.483     439.888
  P      213.454      41.975     437.707
  C      212.147      44.135     438.202
  O      213.416      43.497     438.220
  O      212.029      41.808     436.995
  O      214.637      41.592     436.882
  H      211.295      41.979     437.615
  H      212.255      45.141     438.621
  H      211.431      43.567     438.803
  H      211.789      44.212     437.169
  H      211.965      37.210     444.775
  H      213.599      36.894     444.242
  H      212.361      35.678     444.033

 3  4  5  6  7  8  9  10  11  12  22  25  29  30  31  32 0
 6-311+G(2d,p)
 ****
 33  36  37 0
 6-311+G(2d,p)
 ****
 1  2  13  14  15  16  17  18  19  20  21  23  24  26 0
 3-21G
 ****
 27  28  34  35  38  39  40  41  42  43  44  45  46  47  48 0
 3-21G
 ****


