%nproc=1
%NoSave
%Mem=1900MB
#P OB98/GEN NMR

erre ene a

0 1
  C     -262.041     261.484     326.440
  O     -261.351     260.466     327.145
  P     -261.653     260.196     328.699
  C     -259.242     260.454     329.560
  O     -260.554     261.018     329.526
  C     -258.421     261.069     330.691
  O     -257.113     260.447     330.713
  C     -258.211     262.574     330.536
  O     -258.226     263.178     331.830
  C     -256.801     262.697     329.976
  O     -256.213     263.960     330.312
  C     -256.117     261.476     330.600
  N     -251.588     262.576     328.438
  C     -252.408     263.312     329.218
  N     -253.610     262.965     329.738
  C     -253.913     261.696     329.420
  C     -253.172     260.825     328.631
  C     -251.954     261.312     328.122
  N     -251.107     260.561     327.331
  N     -253.821     259.609     328.498
  C     -254.922     259.741     329.204
  N     -255.017     260.978     329.791
  O     -261.772     258.760     329.078
  O     -263.003     261.004     328.986
  H     -256.001     263.938     331.271
  H     -263.570     260.504     329.600
  H     -252.066     264.314     329.461
  H     -255.684     258.981     329.326
  H     -255.738     261.698     331.604
  H     -256.836     262.621     328.879
  H     -258.954     263.046     329.893
  H     -258.911     260.840     331.643
  H     -258.754     260.665     328.605
  H     -250.207     260.952     327.122
  H     -251.298     259.566     327.249
  H     -259.312     259.369     329.683
  P     -259.599     263.907     332.255
  C     -258.537     266.199     331.609
  O     -259.600     265.285     331.434
  O     -259.755     263.996     333.734
  O     -260.680     262.977     331.519
  H     -260.283     262.512     330.746
  H     -258.734     267.083     330.994
  H     -257.594     265.748     331.276
  H     -258.461     266.499     332.653
  H     -261.702     261.507     325.425
  H     -261.850     262.430     326.902
  H     -263.092     261.283     326.461

 3  4  5  6  7  8  9  10  11  12  22  25  29  30  31  32 0
 6-311+G(2d,p)
 ****
 33  36  37 0
 6-311+G(2d,p)
 ****
 1  2  13  14  15  16  17  18  19  20  21  23  24  26 0
 3-21G
 ****
 27  28  34  35  38  39  40  41  42  43  44  45  46  47  48 0
 3-21G
 ****


