%nproc=1
%NoSave
%Mem=1900MB
#P OB98/GEN NMR

erre ene a

0 1
  C      204.308    -720.569     514.224
  O      203.536    -721.714     513.884
  P      202.249    -721.586     512.919
  C      202.725    -723.689     511.491
  O      202.698    -722.258     511.540
  C      201.612    -724.187     510.574
  O      201.753    -723.578     509.271
  C      201.639    -725.686     510.318
  O      201.124    -726.399     511.433
  C      200.820    -725.787     509.043
  O      199.403    -725.715     509.362
  C      201.241    -724.508     508.297
  N      202.242    -724.779     507.254
  C      201.758    -725.071     505.977
  O      200.549    -725.111     505.745
  N      202.672    -725.313     504.966
  C      203.941    -725.253     505.209
  N      204.791    -725.431     504.165
  C      204.491    -724.995     506.563
  C      203.601    -724.756     507.521
  O      201.718    -720.186     512.790
  O      201.194    -722.634     513.515
  H      199.294    -724.903     509.901
  H      200.621    -722.255     514.219
  H      205.564    -724.975     506.704
  H      203.929    -724.538     508.524
  H      200.380    -724.038     507.822
  H      200.984    -726.711     508.490
  H      202.671    -726.035     510.125
  H      200.644    -723.887     510.994
  H      204.364    -725.423     503.232
  H      202.545    -724.062     512.508
  H      205.756    -725.132     504.206
  H      203.699    -724.019     511.156
  P      201.715    -727.871     511.713
  C      203.001    -727.381     513.899
  O      203.085    -727.668     512.532
  O      202.170    -728.365     510.270
  O      200.731    -728.823     512.355
  H      201.505    -728.984     509.881
  H      203.998    -727.504     514.352
  H      202.306    -728.065     514.411
  H      202.662    -726.344     514.061
  H      205.112    -720.859     514.868
  H      203.688    -719.857     514.727
  H      204.705    -720.129     513.333

 3  4  5  6  7  8  9  10  11  12  13  23  27  28  29  30  32 0
 6-311+G(2d,p)
 ****
 34  35 0
 6-311+G(2d,p)
 ****
 1  2  14  15  16  17  18  19  20  21  22  24  25  26 0
 3-21G
 ****
 31  33  36  37  38  39  40  41  42  43  44  45  46 0
 3-21G
 ****


