%nproc=1
%NoSave
%Mem=1900MB
#P OB98/GEN NMR

erre ene a

0 1
  C       31.865     -84.859      71.208
  O       33.100     -84.771      71.888
  H       31.725     -83.950      70.617
  H       31.043     -84.943      71.924
  H       31.865     -85.721      70.537
  P       33.476     -85.986      72.866
  C       31.846     -85.469      74.822
  O       33.189     -85.477      74.360
  C       31.826     -85.279      76.334
  O       30.467     -85.355      76.822
  C       32.593     -86.344      77.105
  O       33.992     -86.123      77.079
  C       31.996     -86.180      78.493
  O       32.640     -85.123      79.222
  C       30.526     -85.825      78.183
  N       29.628     -86.951      78.414
  C       28.731     -86.803      79.467
  O       28.681     -85.796      80.173
  N       27.913     -87.871      79.711
  C       27.930     -89.060      79.043
  O       27.219     -90.006      79.359
  C       28.888     -89.155      77.930
  C       29.688     -88.116      77.675
  O       35.073     -86.038      72.781
  O       32.849     -87.294      72.519
  H       35.351     -86.775      72.206
  H       32.125     -85.006      80.044
  H       27.263     -87.786      80.477
  H       28.924     -90.084      77.374
  H       30.417     -88.171      76.873
  H       30.193     -84.993      78.817
  H       32.108     -87.087      79.087
  H       32.341     -87.342      76.727
  H       32.217     -84.278      76.564
  H       31.369     -86.423      74.575
  H       31.301     -84.663      74.319
  P       34.959     -87.372      76.802
  C       33.859     -88.751      78.749
  O       35.030     -88.205      78.171
  O       36.380     -86.649      76.711
  O       34.579     -88.171      75.602
  H       36.464     -85.896      77.321
  H       34.114     -89.266      79.651
  H       33.408     -89.436      78.062
  H       33.170     -87.963      78.971

 6  7  8  9  10  11  12  13  14  15  16  27  31  32  33  34  35 0
 6-311+G(2d,p)
 ****
 36  37 0
 6-311+G(2d,p)
 ****
 1  2  3  4  5  17  18  19  20  21  22  23  24  25 0
 3-21G
 ****
 26  28  29  30  38  39  40  41  42  43  44  45 0
 3-21G
 ****


