%nproc=1
%NoSave
%Mem=1900MB
#P OB98/GEN NMR

erre ene a

0 1
  C     -133.157     -89.705    -286.339
  O     -134.484     -89.500    -286.826
  P     -135.067     -90.649    -287.783
  C     -134.209     -89.605    -289.995
  O     -134.143     -90.701    -289.096
  C     -133.035     -89.630    -290.983
  O     -133.195     -88.593    -291.998
  C     -131.668     -89.399    -290.316
  O     -130.722     -90.201    -291.037
  C     -131.431     -87.921    -290.575
  O     -130.082     -87.528    -290.389
  C     -131.976     -87.816    -291.995
  N     -129.781     -83.425    -293.383
  C     -129.263     -84.612    -292.999
  N     -129.918     -85.736    -292.639
  C     -131.246     -85.550    -292.712
  C     -131.923     -84.400    -293.085
  C     -131.128     -83.293    -293.436
  N     -131.645     -82.074    -293.809
  N     -133.294     -84.593    -293.015
  C     -133.427     -85.817    -292.536
  N     -132.227     -86.458    -292.420
  O     -136.448     -90.034    -288.309
  O     -135.252     -91.962    -287.097
  H     -129.959     -86.609    -290.704
  H     -137.197     -90.396    -287.802
  H     -128.177     -84.663    -292.971
  H     -134.362     -86.282    -292.260
  H     -131.297     -88.263    -292.733
  H     -132.045     -87.330    -289.883
  H     -131.642     -89.677    -289.259
  H     -133.042     -90.595    -291.500
  H     -134.190     -88.662    -289.442
  H     -130.996     -81.338    -294.035
  H     -132.643     -81.931    -293.849
  H     -135.169     -89.632    -290.524
  P     -130.186     -91.557    -290.367
  C     -128.078     -90.563    -289.297
  O     -129.377     -91.071    -289.067
  O     -128.986     -91.925    -291.365
  O     -131.189     -92.646    -290.187
  H     -128.402     -91.159    -291.508
  H     -127.671     -90.195    -288.350
  H     -128.116     -89.736    -290.012
  H     -127.427     -91.356    -289.677
  H     -132.875     -88.882    -285.716
  H     -132.481     -89.775    -287.165
  H     -133.121     -90.611    -285.771

 3  4  5  6  7  8  9  10  11  12  22  25  29  30  31  32 0
 6-311+G(2d,p)
 ****
 33  36  37 0
 6-311+G(2d,p)
 ****
 1  2  13  14  15  16  17  18  19  20  21  23  24  26 0
 3-21G
 ****
 27  28  34  35  38  39  40  41  42  43  44  45  46  47  48 0
 3-21G
 ****


