%nproc=1
%NoSave
%Mem=1900MB
#P OB98/GEN NMR

erre ene a

0 1
  C      598.862     125.029    -248.416
  O      599.976     124.493    -249.130
  P      601.065     125.514    -249.722
  C      600.802     124.584    -252.195
  O      601.631     124.951    -251.111
  C      601.607     123.737    -253.189
  O      602.565     124.572    -253.886
  C      602.397     122.610    -252.532
  O      601.619     121.444    -252.370
  C      603.559     122.443    -253.487
  O      603.152     121.701    -254.646
  C      603.865     123.919    -253.849
  N      604.760     124.689    -252.968
  C      606.143     124.625    -253.147
  O      606.691     123.939    -254.013
  N      606.899     125.378    -252.292
  C      606.429     126.316    -251.414
  O      607.163     127.017    -250.715
  C      604.973     126.463    -251.369
  C      604.214     125.644    -252.122
  O      602.304     125.360    -248.717
  O      600.600     126.927    -249.825
  H      602.366     122.149    -255.016
  H      602.454     126.203    -248.247
  H      607.904     125.291    -252.367
  H      604.567     127.213    -250.712
  H      603.142     125.748    -252.089
  H      604.291     123.974    -254.858
  H      604.372     121.866    -253.025
  H      602.794     122.942    -251.561
  H      600.916     123.322    -253.929
  H      600.397     125.469    -252.691
  H      599.945     124.012    -251.816
  P      600.661     121.285    -251.092
  C      602.015     119.235    -250.336
  O      600.737     119.726    -250.688
  O      599.288     121.844    -251.231
  O      601.489     121.983    -249.917
  H      601.199     122.923    -249.791
  H      601.911     118.226    -249.938
  H      602.469     119.879    -249.577
  H      602.656     119.186    -251.225
  H      598.231     124.230    -248.087
  H      598.307     125.681    -249.058
  H      599.213     125.578    -247.568

 3  4  5  6  7  8  9  10  11  12  13  23  28  29  30  31  32 0
 6-311+G(2d,p)
 ****
 33  34 0
 6-311+G(2d,p)
 ****
 1  2  14  15  16  17  18  19  20  21  22  24  25  26  27 0
 3-21G
 ****
 35  36  37  38  39  40  41  42  43  44  45 0
 3-21G
 ****


