%nproc=1
%NoSave
%Mem=1900MB
#P OB98/GEN NMR

erre ene a

0 1
  C      228.833       3.362     129.628
  O      228.709       4.709     130.065
  P      227.504       5.076     131.055
  C      225.746       5.028     129.147
  O      226.159       4.489     130.396
  C      224.320       4.589     128.803
  O      224.271       3.139     128.750
  C      223.255       5.044     129.808
  O      222.048       5.275     129.072
  C      223.072       3.818     130.689
  O      221.823       3.829     131.377
  C      223.223       2.709     129.650
  N      221.713      -2.116     130.407
  C      221.147      -1.094     129.731
  N      221.612       0.164     129.574
  C      222.786       0.320     130.207
  C      223.467      -0.622     130.964
  C      222.884      -1.899     131.052
  N      223.463      -2.944     131.731
  N      224.626      -0.082     131.481
  C      224.645       1.162     131.045
  N      223.568       1.440     130.252
  O      227.357       6.658     130.855
  O      227.722       4.726     132.487
  H      221.839       3.121     132.049
  H      227.633       7.125     131.669
  H      220.199      -1.318     129.249
  H      225.411       1.892     131.273
  H      222.310       2.568     129.061
  H      223.871       3.776     131.437
  H      223.528       5.935     130.380
  H      224.080       4.958     127.797
  H      226.421       4.665     128.367
  H      223.057      -3.864     131.637
  H      224.421      -2.850     132.054
  H      225.806       6.118     129.180
  P      221.359       6.712     129.242
  C      220.019       5.960     131.334
  O      220.967       6.856     130.787
  O      219.946       6.535     128.506
  O      222.146       7.838     128.657
  H      219.638       7.394     128.161
  H      220.276       5.767     132.378
  H      220.004       5.005     130.793
  H      219.026       6.413     131.288
  H      229.678       3.274     128.977
  H      227.947       3.075     129.102
  H      228.968       2.723     130.476

 3  4  5  6  7  8  9  10  11  12  22  25  29  30  31  32 0
 6-311+G(2d,p)
 ****
 33  36  37 0
 6-311+G(2d,p)
 ****
 1  2  13  14  15  16  17  18  19  20  21  23  24  26 0
 3-21G
 ****
 27  28  34  35  38  39  40  41  42  43  44  45  46  47  48 0
 3-21G
 ****


