%nproc=1
%NoSave
%Mem=1900MB
#P OB98/GEN NMR

erre ene a

0 1
  C       99.395     321.064    -197.186
  O       98.814     322.274    -196.745
  P       99.740     323.489    -196.266
  C       98.005     324.990    -197.424
  O       98.867     324.833    -196.302
  C       97.094     326.199    -197.234
  O       97.865     327.377    -196.908
  C       96.298     326.579    -198.473
  O       95.246     325.668    -198.730
  C       95.855     327.991    -198.114
  O       94.712     327.962    -197.247
  C       97.090     328.520    -197.355
  N       97.896     329.423    -198.164
  C       97.250     330.579    -198.618
  O       96.052     330.750    -198.400
  N       97.985     331.506    -199.316
  C       99.213     331.242    -199.642
  N       99.909     332.223    -200.281
  C       99.878     329.963    -199.320
  C       99.174     329.117    -198.568
  O      101.065     323.586    -196.948
  O       99.931     323.237    -194.695
  H      100.883     323.288    -194.482
  H       95.031     327.645    -196.378
  H      100.880     329.766    -199.671
  H       99.590     328.162    -198.263
  H       96.780     329.044    -196.444
  H       95.579     328.579    -198.996
  H       96.968     326.617    -199.344
  H       96.419     325.987    -196.395
  H       99.426     333.092    -200.468
  H       97.400     324.085    -197.532
  H      100.925     332.254    -200.284
  H       98.613     325.104    -198.331
  P       95.033     325.213    -200.252
  C       94.795     322.752    -199.488
  O       94.248     323.819    -200.234
  O       96.511     324.814    -200.727
  O       94.446     326.264    -201.139
  H       96.636     325.067    -201.662
  H       94.006     322.023    -199.288
  H       95.204     323.100    -198.535
  H       95.583     322.266    -200.071
  H       98.622     320.377    -197.463
  H       99.982     320.642    -196.397
  H      100.021     321.256    -198.032

 3  4  5  6  7  8  9  10  11  12  13  24  27  28  29  30  32 0
 6-311+G(2d,p)
 ****
 34  35 0
 6-311+G(2d,p)
 ****
 1  2  14  15  16  17  18  19  20  21  22  23  25  26 0
 3-21G
 ****
 31  33  36  37  38  39  40  41  42  43  44  45  46 0
 3-21G
 ****


