%nproc=1
%NoSave
%Mem=1900MB
#P OB98/GEN NMR

erre ene a

0 1
  C       70.651     -41.094      56.776
  O       71.439     -42.267      56.879
  P       73.033     -42.086      56.764
  C       73.464     -41.744      59.317
  O       73.473     -41.187      58.013
  C       74.833     -41.548      59.971
  O       75.851     -42.236      59.217
  C       75.279     -40.096      60.063
  O       74.683     -39.463      61.181
  C       76.791     -40.249      60.177
  O       77.176     -40.564      61.529
  C       77.063     -41.433      59.237
  N       80.917     -40.672      56.058
  C       80.921     -40.898      57.421
  N       82.133     -40.976      58.012
  N       79.838     -41.038      58.138
  C       78.699     -40.922      57.416
  C       78.565     -40.685      56.068
  C       79.771     -40.584      55.279
  O       79.821     -40.482      54.056
  N       77.247     -40.610      55.700
  C       76.589     -40.834      56.818
  N       77.422     -41.050      57.885
  O       73.197     -41.117      55.505
  O       73.808     -43.358      56.618
  H       76.958     -39.811      62.108
  H       73.414     -41.628      54.701
  H       81.783     -40.589      55.555
  H       75.514     -40.870      56.904
  H       77.869     -42.077      59.610
  H       77.320     -39.331      59.907
  H       83.008     -40.854      57.529
  H       75.032     -39.560      59.139
  H       82.156     -41.137      59.012
  H       74.795     -42.002      60.970
  H       73.246     -42.814      59.249
  H       72.680     -41.261      59.908
  P       74.594     -37.861      61.165
  C       72.717     -37.181      59.507
  O       74.094     -37.430      59.707
  O       76.129     -37.408      61.197
  O       73.830     -37.273      62.304
  H       76.218     -36.594      61.727
  H       72.607     -36.437      58.714
  H       72.235     -36.807      60.414
  H       72.227     -38.107      59.195
  H       69.616     -41.350      56.868
  H       70.821     -40.633      55.826
  H       70.921     -40.413      57.556

 3  4  5  6  7  8  9  10  11  12  23  26  30  31 0
 6-311+G(2d,p)
 ****
 33  35  36  37  38 0
 6-311+G(2d,p)
 ****
 1  2  13  14  15  16  17  18  19  20  21  22  24  25 0
 3-21G
 ****
 27  28  29  32  34  39  40  41  42  43  44  45  46  47  48  49 0
 3-21G
 ****


