%nproc=1
%NoSave
%Mem=1900MB
#P OB98/GEN NMR

erre ene a

0 1
  C      318.958    -576.220    -233.666
  O      319.146    -575.649    -232.377
  P      320.646    -575.545    -231.811
  C      319.757    -573.974    -229.890
  O      320.506    -575.121    -230.268
  C      319.840    -573.774    -228.378
  O      321.206    -573.879    -227.939
  C      319.366    -572.405    -227.894
  O      317.943    -572.319    -227.880
  C      320.013    -572.332    -226.533
  O      319.245    -573.070    -225.552
  C      321.369    -573.019    -226.778
  N      322.482    -572.085    -226.968
  C      322.733    -571.216    -225.913
  O      322.094    -571.213    -224.863
  N      323.761    -570.329    -226.113
  C      324.491    -570.183    -227.254
  O      325.372    -569.344    -227.393
  C      324.148    -571.107    -228.345
  C      323.179    -571.998    -228.158
  O      321.148    -574.218    -232.557
  O      321.460    -576.759    -232.085
  H      320.403    -573.616    -232.759
  H      319.695    -572.925    -224.689
  H      323.978    -569.696    -225.350
  H      324.705    -571.018    -229.273
  H      322.907    -572.690    -228.952
  H      321.617    -573.698    -225.943
  H      320.100    -571.293    -226.152
  H      319.761    -571.620    -228.540
  H      319.261    -574.573    -227.886
  H      318.712    -574.110    -230.185
  H      320.161    -573.101    -230.419
  P      317.306    -570.886    -228.269
  C      315.117    -572.329    -228.173
  O      315.720    -571.040    -228.104
  O      317.555    -570.852    -229.850
  O      317.923    -569.735    -227.526
  H      317.367    -571.720    -230.280
  H      314.141    -572.272    -227.700
  H      315.729    -573.074    -227.655
  H      315.000    -572.625    -229.224
  H      317.915    -576.222    -233.906
  H      319.327    -577.224    -233.668
  H      319.490    -575.643    -234.393

 3  4  5  6  7  8  9  10  11  12  13  24  28  29  30  31  32 0
 6-311+G(2d,p)
 ****
 33  34 0
 6-311+G(2d,p)
 ****
 1  2  14  15  16  17  18  19  20  21  22  23  25  26  27 0
 3-21G
 ****
 35  36  37  38  39  40  41  42  43  44  45 0
 3-21G
 ****


