%nproc=1
%NoSave
%Mem=1900MB
#P OB98/GEN NMR

erre ene a

0 1
  C     -362.716     181.318     364.573
  O     -361.696     181.570     363.625
  H     -363.263     180.422     364.270
  H     -363.412     182.161     364.613
  H     -362.278     181.148     365.561
  P     -360.756     182.841     363.906
  C     -362.165     184.075     362.120
  O     -361.640     184.097     363.438
  C     -362.659     185.464     361.718
  O     -363.345     185.415     360.456
  C     -363.647     186.084     362.703
  O     -362.969     186.660     363.804
  C     -364.293     187.144     361.821
  O     -363.431     188.294     361.731
  C     -364.372     186.438     360.451
  N     -368.859     187.002     358.021
  C     -367.859     187.875     358.268
  N     -366.716     187.665     358.958
  C     -366.655     186.406     359.416
  C     -367.600     185.408     359.239
  C     -368.746     185.739     358.494
  N     -369.759     184.845     358.233
  N     -367.197     184.239     359.854
  C     -366.006     184.512     360.344
  N     -365.647     185.821     360.138
  O     -359.375     182.760     363.355
  O     -360.845     182.938     365.504
  H     -363.393     188.703     362.614
  H     -361.747     182.732     365.809
  H     -367.987     188.872     357.859
  H     -365.357     183.801     360.842
  H     -364.149     187.127     359.630
  H     -365.249     187.494     362.224
  H     -364.410     185.364     363.013
  H     -361.783     186.108     361.588
  H     -362.984     183.352     362.045
  H     -370.612     185.209     357.844
  H     -369.728     183.946     358.692
  H     -361.359     183.756     361.451
  P     -363.198     186.104     365.290
  C     -364.579     188.141     366.029
  O     -364.579     186.735     365.807
  O     -362.047     186.283     366.217
  O     -363.562     184.560     365.085
  H     -363.158     184.020     365.793
  H     -365.546     188.448     366.370
  H     -364.346     188.646     365.115
  H     -363.846     188.385     366.769

 6  7  8  9  10  11  12  13  14  15  25  28  32  33  34  35 0
 6-311+G(2d,p)
 ****
 36  39  40 0
 6-311+G(2d,p)
 ****
 1  2  3  4  5  16  17  18  19  20  21  22  23  24 0
 3-21G
 ****
 26  27  29  30  31  37  38  41  42  43  44  45  46  47 0
 3-21G
 ****
 48 0
 3-21G
 ****


