%nproc=1
%NoSave
%Mem=1900MB
#P OB98/GEN NMR

erre ene a

0 1
  C      850.352    -327.267    -785.251
  O      849.286    -327.703    -784.437
  H      850.271    -327.768    -786.226
  H      851.306    -327.544    -784.797
  H      850.312    -326.187    -785.408
  P      848.898    -326.841    -783.147
  C      846.339    -327.078    -783.413
  O      847.474    -327.368    -782.613
  C      845.082    -326.827    -782.568
  O      844.718    -328.007    -781.835
  C      845.324    -325.729    -781.511
  O      845.159    -324.396    -781.974
  C      844.264    -326.074    -780.465
  O      842.991    -325.503    -780.801
  C      844.200    -327.615    -780.551
  N      844.636    -328.501    -775.542
  C      843.745    -327.671    -776.213
  N      842.915    -326.934    -775.430
  N      843.700    -327.560    -777.509
  C      844.651    -328.275    -778.159
  C      845.587    -329.118    -777.591
  C      845.594    -329.279    -776.154
  O      846.364    -329.994    -775.518
  N      846.401    -329.685    -778.564
  C      845.999    -329.113    -779.689
  N      844.918    -328.276    -779.490
  O      848.526    -325.401    -783.758
  O      849.969    -326.718    -782.105
  H      842.786    -325.733    -781.723
  H      848.674    -324.708    -783.087
  H      844.590    -328.576    -774.548
  H      846.427    -329.301    -780.667
  H      843.165    -327.966    -780.523
  H      844.543    -325.698    -779.477
  H      842.987    -326.908    -774.425
  H      846.314    -325.840    -781.053
  H      842.446    -326.132    -775.853
  H      844.244    -326.571    -783.225
  H      846.177    -327.943    -784.065
  H      846.542    -326.226    -784.062
  P      846.165    -323.254    -781.497
  C      846.828    -321.862    -783.588
  O      845.969    -322.003    -782.484
  O      847.604    -323.837    -781.910
  O      846.108    -322.922    -780.043
  H      848.018    -324.284    -781.147
  H      846.562    -320.983    -784.137
  H      846.738    -322.719    -784.222
  H      847.838    -321.776    -783.245

 6  7  8  9  10  11  12  13  14  15  26  29  33  34 0
 6-311+G(2d,p)
 ****
 36  38  39  40  41 0
 6-311+G(2d,p)
 ****
 1  2  3  4  5  16  17  18  19  20  21  22  23  24  25 0
 3-21G
 ****
 27  28  30  31  32  35  37  42  43  44  45  46  47 0
 3-21G
 ****
 48  49 0
 3-21G
 ****


