%nproc=1
%NoSave
%Mem=1900MB
#P OB98/GEN NMR

erre ene a

0 1
  C     -135.419    -158.164    -125.899
  O     -135.900    -156.880    -125.486
  P     -134.982    -155.614    -125.860
  C     -134.249    -154.428    -128.058
  O     -134.872    -155.558    -127.460
  C     -134.615    -154.330    -129.537
  O     -134.416    -155.591    -130.205
  C     -136.070    -153.969    -129.798
  O     -136.301    -152.576    -129.653
  C     -136.224    -154.392    -131.253
  O     -135.728    -153.356    -132.119
  C     -135.325    -155.637    -131.333
  N     -136.181    -160.084    -133.606
  C     -135.342    -159.050    -133.972
  N     -134.607    -159.240    -135.090
  N     -135.234    -157.932    -133.305
  C     -136.006    -157.894    -132.193
  C     -136.877    -158.850    -131.725
  C     -137.011    -160.072    -132.492
  O     -137.763    -161.005    -132.230
  N     -137.479    -158.456    -130.559
  C     -136.954    -157.275    -130.303
  N     -136.064    -156.883    -131.275
  O     -133.521    -156.083    -125.404
  O     -135.398    -154.347    -125.191
  H     -136.050    -152.504    -131.760
  H     -132.975    -155.306    -125.183
  H     -136.231    -160.921    -134.160
  H     -137.178    -156.668    -129.434
  H     -134.714    -155.640    -132.242
  H     -137.266    -154.567    -131.535
  H     -134.588    -160.104    -135.611
  H     -136.742    -154.564    -129.165
  H     -133.960    -158.507    -135.353
  H     -133.957    -153.583    -130.002
  H     -133.164    -154.506    -127.958
  H     -134.553    -153.527    -127.517
  P     -136.600    -152.033    -128.172
  C     -135.147    -151.813    -126.035
  O     -135.178    -151.981    -127.438
  O     -137.352    -153.263    -127.480
  O     -137.412    -150.781    -128.126
  H     -137.960    -152.941    -126.787
  H     -135.901    -152.437    -125.545
  H     -135.320    -150.763    -125.785
  H     -134.159    -152.106    -125.668
  H     -136.112    -158.920    -125.594
  H     -134.467    -158.350    -125.447
  H     -135.318    -158.181    -126.964

 3  4  5  6  7  8  9  10  11  12  23  26  30  31  33  0
 6-311+G(2d,p)
 ****
 35  36  37  38 0
 6-311+G(2d,p)
 ****
 1  2  13  14  15  16  17  18  19  20  21  22  24  25  27  28  29 0
 3-21G
 ****
 32  34  39  40  41  42  43  44  45  46  47  48  49 0
 3-21G
 ****


