%nproc=1
%NoSave
%Mem=1900MB
#P OB98/GEN NMR

erre ene a

0 1
  C     -897.610     475.642    1163.609
  O     -897.970     474.718    1162.602
  P     -898.750     475.259    1161.318
  C     -896.420     475.992    1160.270
  O     -897.650     475.299    1160.118
  C     -895.410     475.454    1159.254
  O     -894.900     474.140    1159.676
  C     -895.920     475.262    1157.850
  O     -896.050     476.510    1157.159
  C     -894.880     474.297    1157.240
  O     -893.710     475.044    1156.857
  C     -894.570     473.407    1158.466
  N     -895.260     472.112    1158.407
  C     -894.980     471.307    1157.345
  O     -894.200     471.615    1156.417
  N     -895.650     470.084    1157.308
  C     -896.570     469.644    1158.161
  O     -897.170     468.574    1158.094
  C     -896.850     470.560    1159.330
  C     -896.220     471.751    1159.411
  O     -898.960     476.806    1161.691
  O     -900.000     474.502    1161.002
  H     -898.270     477.119    1162.312
  H     -893.970     475.618    1156.126
  H     -895.460     469.474    1156.544
  H     -897.590     470.231    1160.049
  H     -896.400     472.436    1160.222
  H     -893.490     473.200    1158.508
  H     -895.260     473.753    1156.382
  H     -896.940     474.772    1157.868
  H     -894.540     476.167    1159.271
  H     -896.040     475.818    1161.295
  H     -896.590     477.044    1160.104
  P     -897.000     476.531    1155.815
  C     -898.680     478.484    1156.396
  O     -897.530     478.018    1155.709
  O     -898.300     475.716    1156.361
  O     -896.330     475.973    1154.607
  H     -898.520     475.945    1157.251
  H     -898.640     479.573    1156.515
  H     -898.690     478.075    1157.424
  H     -899.580     478.153    1155.875
  H     -897.098     475.130    1164.397
  H     -898.492     476.106    1163.999
  H     -896.968     476.390    1163.193

 3  4  5  6  7  8  9  10  11  12  13  24  28  29  30  31  32 0
 6-311+G(2d,p)
 ****
 33  34 0
 6-311+G(2d,p)
 ****
 1  2  14  15  16  17  18  19  20  21  22  23  25  26  27 0
 3-21G
 ****
 35  36  37  38  39  40  41  42  43  44  45 0
 3-21G
 ****


