%nproc=1
%NoSave
%Mem=1900MB
#P OB98/GEN NMR

erre ene a

0 1
  C     -307.720     174.666      25.237
  O     -307.215     175.907      24.780
  H     -308.696     174.830      25.706
  H     -307.043     174.233      25.980
  H     -307.839     173.973      24.396
  P     -305.732     175.892      24.160
  C     -305.003     177.445      26.128
  O     -304.794     176.227      25.424
  C     -304.259     177.408      27.461
  O     -304.929     176.538      28.396
  C     -302.829     176.878      27.371
  O     -301.904     177.827      26.861
  C     -302.572     176.576      28.842
  O     -302.347     177.805      29.554
  C     -303.916     175.925      29.238
  N     -303.918     174.463      29.078
  C     -303.570     173.706      30.201
  O     -303.269     174.250      31.266
  N     -303.526     172.338      30.088
  C     -303.835     171.775      28.965
  N     -303.766     170.409      28.907
  C     -304.222     172.532      27.752
  C     -304.242     173.857      27.883
  O     -305.671     177.249      23.312
  O     -305.352     174.668      23.400
  H     -302.099     177.560      30.462
  H     -304.745     177.416      23.005
  H     -304.453     172.019      26.833
  H     -304.519     174.480      27.040
  H     -304.169     176.164      30.279
  H     -301.695     175.950      29.000
  H     -302.784     175.942      26.803
  H     -304.280     178.422      27.883
  H     -303.443     169.919      29.729
  H     -306.079     177.561      26.305
  H     -303.839     169.891      28.041
  H     -304.642     178.289      25.535
  P     -300.507     177.272      26.310
  C     -299.161     178.521      28.160
  O     -299.482     177.278      27.543
  O     -299.979     178.459      25.377
  O     -300.598     175.975      25.557
  H     -299.476     178.112      24.612
  H     -298.470     178.354      28.960
  H     -300.053     178.968      28.547
  H     -298.719     179.174      27.437

 6  7  8  9  10  11  12  13  14  15  16  26  30  31  32  33  35 0
 6-311+G(2d,p)
 ****
 37  38 0
 6-311+G(2d,p)
 ****
 1  2  3  4  5  17  18  19  20  21  22  23  24  25 0
 3-21G
 ****
 27  28  29  34  36  39  40  41  42  43  44  45  46 0
 3-21G
 ****


