%nproc=1
%NoSave
%Mem=1900MB
#P OB98/GEN NMR

erre ene a

0 1
  C       32.658     529.199     328.236
  O       32.590     528.822     326.873
  H       33.334     530.053     328.333
  H       33.043     528.371     328.839
  H       31.669     529.489     328.600
  P       31.717     527.514     326.540
  C       33.697     526.253     325.404
  O       32.447     526.902     325.246
  C       34.360     526.066     324.045
  O       35.676     525.500     324.191
  C       33.613     525.118     323.109
  O       32.492     525.728     322.487
  C       34.710     524.804     322.110
  O       34.887     525.918     321.209
  C       35.930     524.645     323.042
  N       36.152     523.264     323.471
  C       36.516     522.343     322.476
  O       36.629     522.706     321.300
  N       36.711     521.028     322.827
  C       36.567     520.657     324.068
  N       36.755     519.340     324.350
  C       36.205     521.594     325.143
  C       36.013     522.859     324.780
  O       30.365     528.113     325.922
  O       31.511     526.553     327.665
  H       34.119     525.923     320.615
  H       29.803     527.379     325.568
  H       36.082     521.240     326.155
  H       35.737     523.605     325.523
  H       36.850     525.014     322.557
  H       34.492     523.929     321.494
  H       33.328     524.191     323.619
  H       34.481     527.062     323.591
  H       36.954     518.716     323.579
  H       33.526     525.276     325.879
  H       36.497     518.934     325.237
  H       34.350     526.848     326.048
  P       31.200     524.800     322.220
  C       32.065     523.949     319.919
  O       31.052     524.653     320.631
  O       29.982     525.763     322.614
  O       31.171     523.515     322.988
  H       29.277     525.275     323.070
  H       31.825     523.937     318.876
  H       32.124     522.945     320.283
  H       33.006     524.437     320.063

 6  7  8  9  10  11  12  13  14  15  16  26  30  31  32  33  35 0
 6-311+G(2d,p)
 ****
 37  38 0
 6-311+G(2d,p)
 ****
 1  2  3  4  5  17  18  19  20  21  22  23  24  25 0
 3-21G
 ****
 27  28  29  34  36  39  40  41  42  43  44  45  46 0
 3-21G
 ****


