%nproc=1
%NoSave
%Mem=1900MB
#P OB98/GEN NMR

erre ene a

0 1
  C       59.689      18.864     175.185
  O       58.809      19.140     176.249
  H       59.818      19.776     174.595
  H       59.273      18.092     174.533
  H       60.666      18.551     175.562
  P       58.403      17.959     177.260
  C       59.924      18.828     179.136
  O       59.681      17.768     178.222
  C       60.243      18.289     180.531
  O       61.422      17.442     180.467
  C       60.519      19.387     181.570
  O       59.790      19.112     182.769
  C       62.010      19.257     181.839
  O       62.393      19.762     183.115
  C       62.210      17.753     181.629
  N       63.615      17.406     181.458
  C       64.402      17.431     182.613
  O       63.900      17.726     183.699
  N       65.743      17.174     182.506
  C       66.265      16.959     181.339
  N       67.606      16.741     181.298
  C       65.476      16.952     180.089
  C       64.169      17.177     180.221
  O       57.917      16.714     176.600
  O       57.321      18.613     178.241
  H       62.208      20.726     183.137
  H       56.779      17.895     178.642
  H       65.960      16.774     179.141
  H       63.510      17.192     179.360
  H       61.810      17.181     182.477
  H       62.565      19.817     181.075
  H       60.261      20.385     181.219
  H       59.417      17.641     180.850
  H       68.109      16.761     182.178
  H       59.038      19.473     179.169
  H       68.125      16.587     180.448
  H       60.779      19.408     178.774
  P       59.000      20.349     183.417
  C       57.036      20.493     181.727
  O       58.210      21.103     182.241
  O       60.170      21.367     183.815
  O       58.174      19.972     184.602
  H       60.257      21.408     184.786
  H       56.623      21.108     180.955
  H       56.320      20.379     182.514
  H       57.280      19.532     181.325

 6  7  8  9  10  11  12  13  14  15  16  26  30  31  32  33  35 0
 6-311+G(2d,p)
 ****
 37  38 0
 6-311+G(2d,p)
 ****
 1  2  3  4  5  17  18  19  20  21  22  23  24  25 0
 3-21G
 ****
 27  28  29  34  36  39  40  41  42  43  44  45  46 0
 3-21G
 ****


