%nproc=1
%NoSave
%Mem=1900MB
#P OB98/GEN NMR

erre ene a

0 1
  C      -92.523      24.555     -13.518
  O      -91.960      24.801     -14.808
  P      -90.686      23.952     -15.280
  C      -91.224      23.916     -17.802
  O      -90.326      24.350     -16.793
  C      -90.746      24.355     -19.196
  O      -91.070      25.755     -19.405
  C      -89.232      24.185     -19.388
  O      -88.896      23.474     -20.579
  C      -88.701      25.605     -19.290
  O      -87.450      25.775     -19.939
  C      -89.873      26.442     -19.815
  N      -89.827      27.821     -19.320
  C      -88.965      28.691     -19.975
  O      -88.209      28.338     -20.880
  N      -88.952      29.983     -19.520
  C      -89.642      30.455     -18.443
  O      -89.562      31.611     -18.045
  C      -90.488      29.472     -17.748
  C      -90.539      28.223     -18.211
  O      -90.745      22.485     -15.011
  O      -89.482      24.628     -14.456
  H      -87.169      26.710     -19.830
  H      -88.872      23.917     -14.178
  H      -88.346      30.630     -19.998
  H      -91.034      29.805     -16.875
  H      -91.144      27.476     -17.710
  H      -89.859      26.490     -20.909
  H      -88.547      25.841     -18.229
  H      -88.793      23.579     -18.588
  H      -91.294      23.759     -19.930
  H      -92.212      24.344     -17.618
  H      -91.344      22.829     -17.738
  P      -88.182      22.043     -20.612
  C      -89.229      21.360     -22.882
  O      -88.048      21.583     -22.139
  O      -88.748      21.014     -19.693
  O      -86.672      22.383     -20.194
  H      -86.338      21.687     -19.602
  H      -88.990      20.720     -23.735
  H      -89.608      22.318     -23.256
  H      -89.997      20.873     -22.277
  H      -93.360      25.203     -13.365
  H      -91.785      24.741     -12.766
  H      -92.845      23.536     -13.458

 3  4  5  6  7  8  9  10  11  12  13  23  28  29  30  31  32 0
 6-311+G(2d,p)
 ****
 33  34 0
 6-311+G(2d,p)
 ****
 1  2  14  15  16  17  18  19  20  21  22  24  25  26  27 0
 3-21G
 ****
 35  36  37  38  39  40  41  42  43  44  45 0
 3-21G
 ****


