%nproc=1
%NoSave
%Mem=1900MB
#P OB98/GEN NMR

erre ene a

0 1
  C     -171.824     -73.119     344.348
  O     -172.183     -73.240     345.711
  H     -172.325     -73.911     343.784
  H     -170.742     -73.234     344.225
  H     -172.143     -72.152     343.952
  P     -171.567     -72.188     346.753
  C     -170.387     -73.822     348.369
  O     -170.233     -72.868     347.326
  C     -169.604     -75.089     348.043
  O     -170.372     -75.945     347.172
  C     -168.272     -74.833     347.333
  O     -167.273     -74.463     348.270
  C     -168.032     -76.194     346.699
  O     -167.563     -77.117     347.700
  C     -169.450     -76.576     346.243
  N     -170.015     -78.022     341.414
  C     -169.588     -78.741     342.512
  N     -169.219     -80.022     342.277
  N     -169.510     -78.249     343.721
  C     -169.849     -76.940     343.786
  C     -170.269     -76.115     342.765
  C     -170.405     -76.681     341.444
  O     -170.797     -76.084     340.446
  N     -170.452     -74.829     343.204
  C     -170.182     -74.886     344.494
  N     -169.793     -76.143     344.897
  O     -172.497     -71.688     347.819
  O     -171.014     -71.003     345.831
  H     -168.267     -77.185     348.371
  H     -171.685     -70.304     345.715
  H     -170.036     -78.450     340.501
  H     -170.249     -74.049     345.180
  H     -169.623     -77.655     346.286
  H     -167.290     -76.167     345.900
  H     -168.990     -80.348     341.350
  H     -168.376     -74.088     346.536
  H     -168.855     -80.552     343.062
  H     -169.445     -75.639     348.980
  H     -171.456     -74.044     348.460
  H     -170.033     -73.406     349.322
  P     -166.548     -73.034     348.192
  C     -164.536     -74.380     347.297
  O     -165.350     -73.230     347.143
  O     -166.136     -72.464     349.507
  O     -167.572     -72.109     347.383
  H     -168.237     -71.654     347.954
  H     -163.782     -74.387     346.538
  H     -165.140     -75.259     347.209
  H     -164.072     -74.362     348.261

 6  7  8  9  10  11  12  13  14  15  26  29  33  34 0
 6-311+G(2d,p)
 ****
 36  38  39  40  41 0
 6-311+G(2d,p)
 ****
 1  2  3  4  5  16  17  18  19  20  21  22  23  24  25 0
 3-21G
 ****
 27  28  30  31  32  35  37  42  43  44  45  46  47 0
 3-21G
 ****
 48  49 0
 3-21G
 ****


