%nproc=1
%NoSave
%Mem=1900MB
#P OB98/GEN NMR

erre ene a

0 1
  C      161.820    -477.977     268.493
  O      160.652    -477.515     269.145
  H      161.551    -478.408     267.527
  H      162.487    -477.126     268.325
  H      162.339    -478.718     269.104
  P      159.671    -478.621     269.760
  C      161.037    -478.981     271.938
  O      160.570    -479.547     270.719
  C      159.955    -479.063     273.013
  O      159.731    -480.464     273.338
  C      160.301    -478.329     274.320
  O      159.113    -477.704     274.819
  C      160.701    -479.455     275.255
  O      160.514    -479.121     276.627
  C      159.798    -480.580     274.770
  N      159.316    -484.291     278.211
  C      158.510    -483.263     277.875
  N      158.689    -482.348     276.901
  C      159.802    -482.609     276.202
  C      160.722    -483.625     276.419
  C      160.449    -484.486     277.496
  N      161.299    -485.494     277.888
  N      161.769    -483.530     275.521
  C      161.499    -482.463     274.790
  N      160.320    -481.870     275.166
  O      159.381    -479.566     268.495
  O      158.407    -478.104     270.367
  H      161.012    -478.307     276.823
  H      158.622    -479.216     267.994
  H      157.605    -483.155     278.473
  H      162.128    -482.062     274.009
  H      158.772    -480.505     275.171
  H      161.756    -479.702     275.101
  H      161.093    -477.579     274.207
  H      159.015    -478.676     272.591
  H      161.290    -477.926     271.771
  H      161.076    -485.996     278.737
  H      162.197    -485.583     277.436
  H      161.937    -479.514     272.262
  P      159.265    -476.265     275.508
  C      158.608    -474.918     273.379
  O      159.595    -475.188     274.366
  O      160.644    -476.386     276.309
  O      158.133    -475.904     276.413
  H      160.612    -475.851     277.119
  H      158.979    -474.183     272.695
  H      157.722    -474.550     273.852
  H      158.380    -475.818     272.847

 6  7  8  9  10  11  12  13  14  15  25  28  32  33  34  35 0
 6-311+G(2d,p)
 ****
 36  39  40 0
 6-311+G(2d,p)
 ****
 1  2  3  4  5  16  17  18  19  20  21  22  23  24 0
 3-21G
 ****
 26  27  29  30  31  37  38  41  42  43  44  45  46  47 0
 3-21G
 ****
 48 0
 3-21G
 ****


