%nproc=1
%NoSave
%Mem=1900MB
#P OB98/GEN NMR

erre ene a

0 1
  C     -199.011    -608.800    1044.971
  O     -199.242    -610.194    1044.924
  P     -200.463    -610.858    1045.742
  C     -201.992    -612.897    1045.444
  O     -201.019    -612.031    1044.840
  C     -202.687    -613.735    1044.365
  O     -203.441    -612.894    1043.447
  C     -201.750    -614.536    1043.474
  O     -200.993    -615.566    1044.084
  C     -202.655    -614.907    1042.336
  O     -203.475    -616.058    1042.669
  C     -203.548    -613.634    1042.211
  N     -203.183    -612.829    1041.035
  C     -203.390    -613.401    1039.812
  O     -203.882    -614.557    1039.650
  N     -203.030    -612.669    1038.706
  C     -202.423    -611.430    1038.732
  O     -202.053    -610.825    1037.725
  C     -202.198    -610.895    1040.103
  C     -202.585    -611.575    1041.171
  O     -201.510    -609.877    1046.221
  O     -199.721    -611.628    1046.934
  H     -202.881    -616.727    1043.060
  H     -199.104    -612.318    1046.646
  H     -203.175    -613.077    1037.790
  H     -201.730    -609.898    1040.146
  H     -202.417    -611.186    1042.128
  H     -204.618    -613.928    1042.102
  H     -202.104    -615.183    1041.422
  H     -200.999    -613.842    1043.066
  H     -203.426    -614.380    1044.867
  H     -202.746    -612.265    1045.955
  H     -201.496    -613.546    1046.189
  P     -199.997    -616.505    1043.307
  C     -197.636    -617.561    1043.756
  O     -198.577    -616.558    1044.115
  O     -199.908    -616.299    1041.812
  O     -200.584    -617.972    1043.596
  H     -200.398    -618.538    1042.830
  H     -196.773    -617.443    1044.435
  H     -197.270    -617.402    1042.739
  H     -198.067    -618.563    1043.880
  H     -198.162    -608.559    1044.367
  H     -198.825    -608.503    1045.982
  H     -199.871    -608.283    1044.600

 3  4  5  6  7  8  9  10  11  12  13  23  28  29  30  31  32 0
 6-311+G(2d,p)
 ****
 33  34 0
 6-311+G(2d,p)
 ****
 1  2  14  15  16  17  18  19  20  21  22  24  25  26  27 0
 3-21G
 ****
 35  36  37  38  39  40  41  42  43  44  45 0
 3-21G
 ****


