%nproc=1
%NoSave
%Mem=1900MB
#P OB98/GEN NMR

erre ene a

0 1
  C      292.857     -16.702     100.366
  O      293.473     -16.915      99.108
  P      292.694     -17.800      98.023
  C      294.198     -19.851      98.538
  O      293.678     -18.976      97.547
  C      295.274     -20.768      97.948
  O      295.892     -21.541      99.007
  C      294.729     -21.764      96.915
  O      295.726     -21.996      95.906
  C      294.584     -23.044      97.707
  O      294.609     -24.194      96.855
  C      295.777     -22.934      98.653
  N      295.034     -27.631     100.372
  C      295.408     -27.204      99.113
  N      295.518     -28.164      98.164
  N      295.665     -25.963      98.816
  C      295.506     -25.116      99.861
  C      295.154     -25.420     101.160
  C      294.863     -26.800     101.471
  O      294.499     -27.232     102.560
  N      295.136     -24.296     101.947
  C      295.432     -23.308     101.122
  N      295.631     -23.750      99.841
  O      292.626     -16.830      96.751
  O      291.329     -18.235      98.438
  H      294.697     -24.973      97.439
  H      291.725     -16.475      96.649
  H      294.836     -28.603     100.554
  H      295.491     -22.262     101.398
  H      296.712     -23.228      98.158
  H      293.633     -23.046      98.254
  H      295.270     -29.133      98.319
  H      293.790     -21.457      96.439
  H      295.746     -27.875      97.226
  H      296.060     -20.141      97.506
  H      293.386     -20.466      98.935
  H      294.618     -19.262      99.361
  P      295.289     -21.643      94.396
  C      293.516     -23.550      94.395
  O      294.672     -22.996      93.799
  O      296.693     -21.494      93.638
  O      294.442     -20.423      94.274
  H      296.593     -20.916      92.857
  H      292.700     -23.543      93.665
  H      293.200     -22.997      95.287
  H      293.724     -24.584      94.676
  H      293.494     -16.097     100.977
  H      292.691     -17.644     100.846
  H      291.921     -16.204     100.225

 3  4  5  6  7  8  9  10  11  12  23  26  30  31 0
 6-311+G(2d,p)
 ****
 33  35  36  37  38 0
 6-311+G(2d,p)
 ****
 1  2  13  14  15  16  17  18  19  20  21  22  24  25 0
 3-21G
 ****
 27  28  29  32  34  39  40  41  42  43  44  45  46  47  48  49 0
 3-21G
 ****


