%nproc=1
%NoSave
%Mem=1900MB
#P OB98/GEN NMR

erre ene a

0 1
  C      158.075      37.574      40.456
  O      159.318      38.257      40.547
  P      160.638      37.500      40.039
  C      160.809      36.477      42.417
  O      160.863      36.243      41.016
  C      161.245      35.239      43.199
  O      160.472      34.096      42.747
  C      162.726      34.875      43.040
  O      163.158      34.302      44.279
  C      162.701      33.794      41.975
  O      163.873      32.984      42.000
  C      161.410      33.071      42.351
  N      159.957      28.418      40.810
  C      160.426      28.865      41.994
  N      160.790      30.121      42.328
  C      160.633      30.954      41.287
  C      160.199      30.635      40.011
  C      159.844      29.294      39.784
  N      159.355      28.836      38.583
  N      160.195      31.755      39.205
  C      160.620      32.732      39.980
  N      160.874      32.301      41.250
  O      161.805      38.512      40.457
  O      160.677      37.196      38.581
  H      163.894      32.503      42.849
  H      162.209      38.903      39.658
  H      160.514      28.118      42.779
  H      160.762      33.759      39.669
  H      161.549      32.394      43.204
  H      162.627      34.252      40.984
  H      163.368      35.719      42.768
  H      161.001      35.396      44.257
  H      159.778      36.719      42.692
  H      158.995      27.897      38.539
  H      159.090      29.513      37.874
  H      161.445      37.330      42.671
  P      164.673      34.587      44.723
  C      165.388      32.142      44.229
  O      165.585      33.516      43.960
  O      164.709      34.100      46.249
  O      165.088      36.014      44.592
  H      165.388      34.594      46.742
  H      165.586      31.572      43.317
  H      164.364      31.935      44.560
  H      166.086      31.825      45.007
  H      157.294      38.203      40.830
  H      158.118      36.676      41.036
  H      157.877      37.329      39.433

 3  4  5  6  7  8  9  10  11  12  22  25  29  30  31  32 0
 6-311+G(2d,p)
 ****
 33  36  37 0
 6-311+G(2d,p)
 ****
 1  2  13  14  15  16  17  18  19  20  21  23  24  26 0
 3-21G
 ****
 27  28  34  35  38  39  40  41  42  43  44  45  46  47  48 0
 3-21G
 ****


