%nproc=1
%NoSave
%Mem=1900MB
#P OB98/GEN NMR

erre ene a

0 1
  C     -324.534     253.878    -401.542
  O     -324.890     255.199    -401.907
  H     -325.125     253.179    -402.138
  H     -324.754     253.714    -400.482
  H     -323.469     253.700    -401.736
  P     -324.014     256.383    -401.270
  C     -324.223     257.621    -403.581
  O     -324.281     257.694    -402.162
  C     -324.980     258.799    -404.192
  O     -324.501     260.057    -403.677
  C     -324.790     258.929    -405.698
  O     -325.453     257.924    -406.426
  C     -325.344     260.329    -405.923
  O     -326.782     260.317    -405.945
  C     -324.825     261.072    -404.665
  N     -323.688     261.927    -404.950
  C     -323.992     263.157    -405.556
  O     -325.158     263.455    -405.800
  N     -322.962     263.993    -405.899
  C     -321.739     263.652    -405.629
  N     -320.754     264.528    -406.002
  C     -321.375     262.389    -404.967
  C     -322.383     261.577    -404.671
  O     -322.522     255.974    -401.679
  O     -324.216     256.610    -399.808
  H     -327.060     261.244    -406.055
  H     -322.410     255.815    -402.632
  H     -320.338     262.145    -404.758
  H     -322.209     260.627    -404.182
  H     -325.623     261.693    -404.227
  H     -325.016     260.760    -406.871
  H     -323.720     258.952    -405.945
  H     -326.038     258.701    -403.926
  H     -321.038     265.378    -406.473
  H     -324.631     256.672    -403.940
  H     -319.769     264.352    -405.875
  H     -323.164     257.661    -403.864
  P     -324.729     257.180    -407.636
  C     -326.432     255.305    -407.193
  O     -325.772     256.083    -408.182
  O     -323.361     256.641    -407.338
  O     -324.749     258.273    -408.813
  H     -325.639     258.565    -409.072
  H     -327.097     254.614    -407.668
  H     -326.990     255.949    -406.546
  H     -325.706     254.766    -406.620

 6  7  8  9  10  11  12  13  14  15  16  26  30  31  32  33  35 0
 6-311+G(2d,p)
 ****
 37  38 0
 6-311+G(2d,p)
 ****
 1  2  3  4  5  17  18  19  20  21  22  23  24  25 0
 3-21G
 ****
 27  28  29  34  36  39  40  41  42  43  44  45  46 0
 3-21G
 ****


