%nproc=1
%NoSave
%Mem=1900MB
#P OB98/GEN NMR

erre ene a

0 1
  C      546.809    -703.986    -706.570
  O      546.022    -702.894    -706.115
  P      544.531    -702.743    -706.721
  C      543.964    -702.137    -704.255
  O      543.661    -701.946    -705.629
  C      542.840    -701.613    -703.362
  O      542.819    -700.150    -703.444
  C      541.428    -702.098    -703.747
  O      540.694    -702.246    -702.536
  C      540.905    -700.957    -704.580
  O      539.491    -700.955    -704.764
  C      541.468    -699.773    -703.795
  N      542.381    -694.721    -703.668
  C      542.526    -695.696    -702.725
  N      542.267    -697.013    -702.835
  C      541.830    -697.300    -704.079
  C      541.607    -696.437    -705.121
  C      541.912    -695.074    -704.881
  N      541.756    -694.087    -705.835
  N      541.144    -697.105    -706.241
  C      541.045    -698.367    -705.859
  N      541.468    -698.531    -704.583
  O      543.943    -704.237    -706.638
  O      544.472    -702.189    -708.109
  H      539.181    -701.844    -704.999
  H      543.413    -704.451    -707.418
  H      542.891    -695.367    -701.753
  H      540.674    -699.171    -706.477
  H      540.913    -699.589    -702.871
  H      541.333    -700.997    -705.579
  H      541.446    -703.066    -704.276
  H      543.074    -701.883    -702.316
  H      544.885    -701.596    -704.008
  H      541.793    -693.142    -705.510
  H      541.219    -694.336    -706.662
  H      544.153    -703.211    -704.068
  P      539.448    -703.257    -702.497
  C      539.681    -702.954    -699.937
  O      538.775    -703.016    -701.027
  O      540.184    -704.672    -702.260
  O      538.518    -703.221    -703.664
  H      540.825    -704.622    -701.522
  H      539.117    -702.672    -699.035
  H      540.457    -702.206    -700.119
  H      540.151    -703.944    -699.783
  H      547.765    -703.962    -706.089
  H      546.941    -703.914    -707.629
  H      546.314    -704.905    -706.334

 3  4  5  6  7  8  9  10  11  12  22  25  29  30  31  32 0
 6-311+G(2d,p)
 ****
 33  36  37 0
 6-311+G(2d,p)
 ****
 1  2  13  14  15  16  17  18  19  20  21  23  24  26 0
 3-21G
 ****
 27  28  34  35  38  39  40  41  42  43  44  45  46  47  48 0
 3-21G
 ****


