%nproc=1
%NoSave
%Mem=1900MB
#P OB98/GEN NMR

erre ene a

0 1
  C       35.096      65.369    -102.308
  O       34.508      66.576    -101.876
  P       34.208      66.908    -100.344
  C       31.940      67.899    -101.149
  O       33.067      68.047    -100.295
  C       30.608      68.231    -100.456
  O       30.387      67.311     -99.367
  C       30.686      69.631     -99.822
  O       30.439      70.782    -100.607
  C       29.858      69.533     -98.540
  O       28.534      70.043     -98.710
  C       29.827      68.029     -98.259
  N       29.539      67.399     -93.234
  C       28.513      67.527     -94.156
  N       27.277      67.693     -93.644
  N       28.703      67.511     -95.452
  C       30.006      67.430     -95.808
  C       31.101      67.285     -94.989
  C       30.879      67.257     -93.559
  O       31.766      67.231     -92.710
  N       32.277      67.312     -95.696
  C       31.896      67.511     -96.940
  N       30.530      67.635     -97.054
  O       35.387      67.034     -99.432
  O       33.388      65.595     -99.892
  H       27.960      69.605     -98.065
  H       33.614      65.414     -98.958
  H       29.341      67.490     -92.242
  H       32.563      67.614     -97.786
  H       28.792      67.681     -98.152
  H       30.319      70.121     -97.737
  H       27.114      67.857     -92.659
  H       31.719      69.765     -99.476
  H       26.532      67.961     -94.280
  H       29.766      68.107    -101.135
  H       31.932      66.864    -101.515
  H       32.058      68.550    -102.025
  P       31.524      71.619    -101.432
  C       30.999      73.945    -100.498
  O       30.968      73.106    -101.639
  O       31.452      71.002    -102.912
  O       32.922      71.535    -100.904
  H       32.286      71.186    -103.387
  H       30.341      74.798    -100.659
  H       32.025      74.310    -100.349
  H       30.678      73.400     -99.600
  H       35.195      65.382    -103.373
  H       34.477      64.546    -102.017
  H       36.063      65.263    -101.862

 3  4  5  6  7  8  9  10  11  12  23  26  30  31 0
 6-311+G(2d,p)
 ****
 33  35  36  37  38 0
 6-311+G(2d,p)
 ****
 1  2  13  14  15  16  17  18  19  20  21  22  24  25 0
 3-21G
 ****
 27  28  29  32  34  39  40  41  42  43  44  45  46  47  48  49 0
 3-21G
 ****


