%nproc=1
%NoSave
%Mem=1900MB
#P OB98/GEN NMR

erre ene a

0 1
  C      395.271     -32.602      20.861
  O      395.877     -33.886      20.922
  P      397.480     -33.953      20.837
  C      397.352     -36.362      19.878
  O      397.806     -35.027      19.689
  C      397.863     -37.265      18.760
  O      397.288     -36.859      17.504
  C      399.370     -37.223      18.555
  O      400.054     -38.038      19.486
  C      399.487     -37.780      17.140
  O      399.436     -39.219      17.185
  C      398.230     -37.216      16.459
  N      400.200     -35.507      12.118
  C      400.111     -36.797      12.599
  N      400.590     -37.777      11.801
  N      399.597     -37.108      13.762
  C      399.122     -36.032      14.436
  C      399.153     -34.704      14.065
  C      399.770     -34.376      12.796
  O      399.938     -33.243      12.346
  N      398.560     -33.906      15.008
  C      398.133     -34.746      15.928
  N      398.479     -36.050      15.644
  O      397.883     -34.724      22.184
  O      398.168     -32.634      20.729
  H      399.497     -39.535      16.265
  H      398.795     -34.488      22.445
  H      400.587     -35.331      11.206
  H      397.578     -34.465      16.811
  H      397.741     -37.978      15.837
  H      400.425     -37.506      16.651
  H      400.871     -37.618      10.842
  H      399.743     -36.189      18.575
  H      400.496     -38.732      12.119
  H      397.533     -38.290      18.971
  H      396.256     -36.375      19.870
  H      397.699     -36.719      20.852
  P      401.634     -37.773      19.658
  C      402.020     -40.290      20.186
  O      402.333     -39.184      19.358
  O      401.802     -37.581      21.238
  O      402.146     -36.601      18.883
  H      402.590     -37.033      21.424
  H      400.967     -40.275      20.486
  H      402.653     -40.269      21.074
  H      402.211     -41.211      19.627
  H      394.208     -32.706      20.928
  H      395.525     -32.131      19.934
  H      395.623     -32.002      21.674

 3  4  5  6  7  8  9  10  11  12  23  26  30  31  33  0
 6-311+G(2d,p)
 ****
 35  36  37  38 0
 6-311+G(2d,p)
 ****
 1  2  13  14  15  16  17  18  19  20  21  22  24  25  27  28  29 0
 3-21G
 ****
 32  34  39  40  41  42  43  44  45  46  47  48  49 0
 3-21G
 ****


