%nproc=1
%NoSave
%Mem=1900MB
#P OB98/GEN NMR

erre ene a

0 1
  C      892.944     250.449     106.626
  O      893.668     249.642     105.688
  P      895.076     249.038     106.145
  C      894.418     246.643     105.363
  O      894.887     247.462     106.422
  C      895.479     245.604     104.980
  O      896.609     246.220     104.320
  C      896.068     244.864     106.168
  O      895.231     243.789     106.592
  C      897.362     244.318     105.572
  O      897.074     243.139     104.796
  C      897.802     245.457     104.659
  N      902.004     245.765     107.562
  C      901.273     244.714     107.150
  N      900.155     244.713     106.396
  C      899.820     245.965     106.045
  C      900.473     247.139     106.386
  C      901.625     247.007     107.181
  N      902.371     248.087     107.599
  N      899.832     248.231     105.849
  C      898.812     247.729     105.181
  N      898.762     246.363     105.275
  O      895.273     249.640     107.615
  O      896.214     249.394     105.249
  H      896.790     242.446     105.421
  H      896.221     249.807     107.780
  H      901.620     243.736     107.475
  H      898.095     248.312     104.614
  H      898.248     245.105     103.725
  H      898.083     244.027     106.338
  H      896.290     245.547     107.000
  H      895.021     244.882     104.288
  H      894.159     247.251     104.493
  H      903.199     247.913     108.145
  H      902.099     249.007     107.304
  H      893.493     246.148     105.679
  P      894.884     243.687     108.151
  C      892.444     243.829     107.288
  O      893.360     244.160     108.298
  O      895.741     244.891     108.788
  O      895.215     242.370     108.769
  H      896.001     244.669     109.701
  H      891.429     243.959     107.672
  H      892.571     242.789     106.963
  H      892.573     244.497     106.427
  H      892.029     250.779     106.181
  H      893.535     251.299     106.897
  H      892.727     249.872     107.501

 3  4  5  6  7  8  9  10  11  12  22  25  29  30  31  32 0
 6-311+G(2d,p)
 ****
 33  36  37 0
 6-311+G(2d,p)
 ****
 1  2  13  14  15  16  17  18  19  20  21  23  24  26 0
 3-21G
 ****
 27  28  34  35  38  39  40  41  42  43  44  45  46  47  48 0
 3-21G
 ****


