%nproc=1
%NoSave
%Mem=1900MB
#P OB98/GEN NMR

erre ene a

0 1
  C      -20.296      -2.866      56.322
  O      -20.619      -1.636      55.714
  H      -19.208      -2.967      56.351
  H      -20.710      -3.687      55.730
  H      -20.681      -2.922      57.343
  P      -22.077      -1.022      55.944
  C      -23.274       1.231      55.558
  O      -22.036       0.532      55.541
  C      -23.235       2.472      54.666
  O      -22.104       3.294      55.027
  C      -23.073       2.124      53.184
  O      -24.290       1.870      52.503
  C      -22.391       3.376      52.639
  O      -23.355       4.363      52.238
  C      -21.571       3.881      53.831
  N      -16.775       5.645      53.682
  C      -17.961       6.354      53.643
  N      -17.844       7.693      53.512
  N      -19.138       5.791      53.711
  C      -19.094       4.440      53.739
  C      -17.982       3.628      53.760
  C      -16.681       4.263      53.761
  O      -15.603       3.681      53.810
  N      -18.327       2.298      53.748
  C      -19.640       2.311      53.631
  N      -20.156       3.584      53.702
  O      -22.208      -0.961      57.542
  O      -23.208      -1.808      55.352
  H      -24.005       3.930      51.651
  H      -23.140      -1.085      57.798
  H      -15.899       6.135      53.655
  H      -20.267       1.432      53.538
  H      -21.658       4.968      53.944
  H      -21.795       3.141      51.754
  H      -16.969       8.169      53.369
  H      -22.388       1.281      53.057
  H      -18.685       8.229      53.289
  H      -24.136       3.072      54.841
  H      -23.453       1.522      56.594
  H      -24.090       0.569      55.257
  P      -24.427       0.634      51.500
  C      -26.450      -0.345      50.142
  O      -25.978       0.325      51.291
  O      -23.919      -0.602      52.379
  O      -23.670       0.759      50.219
  H      -22.990      -0.814      52.170
  H      -27.513      -0.449      50.201
  H      -25.999      -1.314      50.084
  H      -26.195       0.220      49.270

 6  7  8  9  10  11  12  13  14  15  26  29  33  34 0
 6-311+G(2d,p)
 ****
 36  38  39  40  41 0
 6-311+G(2d,p)
 ****
 1  2  3  4  5  16  17  18  19  20  21  22  23  24  25 0
 3-21G
 ****
 27  28  30  31  32  35  37  42  43  44  45  46  47 0
 3-21G
 ****
 48  49 0
 3-21G
 ****


