%nproc=1
%NoSave
%Mem=1900MB
#P OB98/GEN NMR

erre ene a

0 1
  C      128.455    -259.791    -641.058
  O      128.981    -259.286    -642.289
  P      130.524    -259.624    -642.600
  C      131.623    -257.421    -641.733
  O      131.428    -258.824    -641.534
  C      133.092    -257.075    -641.985
  O      133.897    -257.609    -640.898
  C      133.667    -257.622    -643.294
  O      134.579    -256.660    -643.837
  C      134.484    -258.822    -642.841
  O      135.507    -259.161    -643.777
  C      135.011    -258.306    -641.490
  N      138.634    -259.702    -638.231
  C      138.413    -258.478    -638.850
  N      139.295    -257.501    -638.562
  N      137.414    -258.249    -639.659
  C      136.588    -259.303    -639.821
  C      136.686    -260.563    -639.261
  C      137.824    -260.820    -638.397
  O      138.100    -261.905    -637.865
  N      135.655    -261.382    -639.675
  C      134.939    -260.605    -640.473
  N      135.468    -259.356    -640.616
  O      130.793    -258.875    -643.988
  O      130.812    -261.092    -642.701
  H      135.067    -259.561    -644.556
  H      131.120    -259.508    -644.654
  H      139.429    -259.834    -637.629
  H      134.044    -260.935    -641.006
  H      135.832    -257.587    -641.633
  H      133.834    -259.692    -642.713
  H      140.058    -257.587    -637.894
  H      132.922    -257.892    -644.050
  H      139.143    -256.583    -638.963
  H      133.195    -255.984    -641.956
  H      131.270    -256.885    -640.840
  H      131.006    -257.114    -642.579
  P      134.079    -255.840    -645.136
  C      134.893    -257.874    -646.558
  O      133.850    -256.943    -646.278
  O      135.390    -255.049    -645.590
  O      132.916    -254.915    -644.854
  H      135.142    -254.233    -646.077
  H      135.680    -257.850    -645.777
  H      135.346    -257.634    -647.515
  H      134.465    -258.870    -646.587
  H      127.429    -259.504    -640.964
  H      129.014    -259.388    -640.239
  H      128.529    -260.858    -641.050

 3  4  5  6  7  8  9  10  11  12  23  26  30  31  33  0
 6-311+G(2d,p)
 ****
 35  36  37  38 0
 6-311+G(2d,p)
 ****
 1  2  13  14  15  16  17  18  19  20  21  22  24  25  27  28  29 0
 3-21G
 ****
 32  34  39  40  41  42  43  44  45  46  47  48  49 0
 3-21G
 ****


