%nproc=1
%NoSave
%Mem=1900MB
#P OB98/GEN NMR

erre ene a

0 1
  C      211.586     -66.004    -315.134
  O      212.145     -64.710    -314.861
  P      212.264     -63.683    -316.089
  C      214.791     -64.140    -316.462
  O      213.491     -64.129    -317.028
  C      215.820     -63.486    -317.392
  O      216.056     -64.311    -318.577
  C      215.394     -62.110    -317.897
  O      216.579     -61.318    -318.122
  C      214.761     -62.423    -319.241
  O      214.683     -61.267    -320.078
  C      215.706     -63.525    -319.733
  N      215.675     -64.590    -324.672
  C      216.406     -63.649    -323.967
  N      217.281     -62.902    -324.676
  N      216.292     -63.453    -322.679
  C      215.397     -64.299    -322.089
  C      214.613     -65.265    -322.686
  C      214.742     -65.445    -324.110
  O      214.104     -66.258    -324.795
  N      213.816     -65.898    -321.755
  C      214.119     -65.307    -320.615
  N      215.095     -64.356    -320.758
  O      212.804     -62.346    -315.382
  O      210.973     -63.434    -316.795
  H      214.084     -61.487    -320.829
  H      212.090     -61.678    -315.347
  H      215.810     -64.685    -325.666
  H      213.649     -65.523    -319.656
  H      216.631     -63.122    -320.161
  H      213.750     -62.810    -319.087
  H      217.460     -63.038    -325.659
  H      214.714     -61.569    -317.226
  H      217.857     -62.234    -324.177
  H      216.783     -63.413    -316.857
  H      215.105     -65.176    -316.252
  H      214.768     -63.643    -315.482
  P      217.282     -60.681    -316.825
  C      216.234     -58.306    -316.944
  O      216.280     -59.556    -316.281
  O      218.497     -59.834    -317.437
  O      217.747     -61.679    -315.810
  H      219.205     -59.727    -316.783
  H      215.338     -58.260    -317.564
  H      217.125     -58.137    -317.566
  H      216.185     -57.511    -316.184
  H      211.566     -66.581    -314.233
  H      212.186     -66.504    -315.865
  H      210.589     -65.891    -315.507

 3  4  5  6  7  8  9  10  11  12  23  26  30  31 0
 6-311+G(2d,p)
 ****
 33  35  36  37  38 0
 6-311+G(2d,p)
 ****
 1  2  13  14  15  16  17  18  19  20  21  22  24  25 0
 3-21G
 ****
 27  28  29  32  34  39  40  41  42  43  44  45  46  47  48  49 0
 3-21G
 ****


