%nproc=1
%NoSave
%Mem=1900MB
#P OB98/GEN NMR

erre ene a

0 1
  C      209.910      43.845       9.757
  O      209.556      43.655      11.111
  H      209.012      43.952       9.144
  H      210.504      44.759       9.672
  H      210.507      43.003       9.399
  P      208.643      42.380      11.447
  C      210.260      40.396      11.033
  O      209.626      41.230      11.993
  C      210.178      38.938      11.476
  O      210.564      38.099      10.359
  C      211.077      38.581      12.673
  O      210.288      38.051      13.743
  C      211.983      37.475      12.150
  O      212.202      36.433      13.098
  C      211.245      36.969      10.916
  N      214.744      33.330      10.222
  C      213.732      33.439      11.111
  N      212.770      34.381      11.176
  C      212.904      35.266      10.174
  C      213.868      35.272       9.180
  C      214.835      34.255       9.238
  N      215.898      34.176       8.366
  N      213.688      36.348       8.330
  C      212.660      37.003       8.828
  N      212.165      36.397       9.954
  O      208.209      41.846      10.001
  O      207.459      42.660      12.310
  H      212.878      35.842      12.714
  H      207.248      41.681       9.987
  H      213.695      32.671      11.878
  H      212.263      37.935       8.447
  H      210.495      36.208      11.167
  H      212.954      37.909      11.883
  H      211.664      39.434      13.030
  H      209.131      38.707      11.707
  H      211.314      40.680      10.939
  H      216.606      33.485       8.552
  H      216.032      34.923       7.700
  H      209.774      40.536      10.062
  P      209.827      39.092      14.881
  C      207.507      39.927      14.048
  O      208.223      39.070      14.927
  O      210.158      40.513      14.222
  O      210.519      38.905      16.188
  H      210.325      41.174      14.919
  H      206.456      39.796      14.199
  H      207.754      39.686      13.035
  H      207.772      40.944      14.248

 6  7  8  9  10  11  12  13  14  15  25  28  32  33  34  35 0
 6-311+G(2d,p)
 ****
 36  39  40 0
 6-311+G(2d,p)
 ****
 1  2  3  4  5  16  17  18  19  20  21  22  23  24 0
 3-21G
 ****
 26  27  29  30  31  37  38  41  42  43  44  45  46  47  48 0
 3-21G
 ****


