%nproc=1
%NoSave
%Mem=1900MB
#P OB98/GEN NMR

erre ene a

0 1
  C      243.455     265.627    -179.502
  O      242.111     265.347    -179.834
  H      243.947     266.069    -180.377
  H      243.976     264.704    -179.240
  H      243.516     266.338    -178.673
  P      241.094     264.949    -178.658
  C      241.213     262.582    -179.682
  O      240.381     263.584    -179.116
  C      240.823     262.312    -181.140
  O      239.368     262.213    -181.220
  C      241.262     263.423    -182.122
  O      241.538     262.789    -183.382
  C      239.998     264.256    -182.194
  O      240.028     265.161    -183.274
  C      238.946     263.146    -182.238
  N      237.583     263.619    -181.997
  C      236.633     263.338    -182.970
  O      236.865     262.705    -183.996
  N      235.373     263.828    -182.725
  C      234.998     264.557    -181.635
  O      233.850     264.959    -181.457
  C      236.056     264.846    -180.656
  C      237.286     264.364    -180.879
  O      240.164     266.024    -178.211
  O      242.061     264.464    -177.471
  H      242.186     265.200    -176.840
  H      239.172     265.643    -183.337
  H      234.668     263.640    -183.421
  H      235.794     265.436    -179.788
  H      238.095     264.561    -180.179
  H      238.979     262.617    -183.198
  H      239.887     264.861    -181.287
  H      242.145     263.968    -181.782
  H      241.228     261.339    -181.441
  H      241.099     261.664    -179.094
  H      242.259     262.912    -179.632
  P      242.852     263.097    -184.251
  C      241.487     263.095    -186.441
  O      242.624     262.584    -185.758
  O      244.114     262.578    -183.636
  O      242.915     264.692    -184.390
  H      243.841     264.978    -184.376
  H      241.447     262.681    -187.427
  H      241.558     264.161    -186.505
  H      240.600     262.828    -185.906

 6  7  8  9  10  11  12  13  14  15  16  27  31  32  33  34  35 0
 6-311+G(2d,p)
 ****
 36  37 0
 6-311+G(2d,p)
 ****
 1  2  3  4  5  17  18  19  20  21  22  23  24  25 0
 3-21G
 ****
 26  28  29  30  38  39  40  41  42  43  44  45 0
 3-21G
 ****


