%nproc=1
%NoSave
%Mem=1900MB
#P OB98/GEN NMR

erre ene a

0 1
  C      175.570    -124.037    -168.873
  O      176.876    -123.758    -168.403
  H      174.850    -123.500    -168.249
  H      175.352    -125.107    -168.808
  H      175.461    -123.701    -169.908
  P      178.103    -124.554    -169.058
  C      178.072    -123.189    -171.257
  O      178.791    -123.524    -170.074
  C      179.028    -122.650    -172.315
  O      179.390    -121.288    -172.012
  C      180.337    -123.421    -172.391
  O      180.159    -124.657    -173.054
  C      181.220    -122.417    -173.104
  O      180.983    -122.424    -174.518
  C      180.748    -121.088    -172.472
  N      181.611    -120.642    -171.383
  C      182.938    -120.362    -171.725
  O      183.322    -120.486    -172.887
  N      183.799    -119.967    -170.732
  C      183.374    -119.846    -169.514
  N      184.278    -119.451    -168.578
  C      181.980    -120.119    -169.113
  C      181.162    -120.513    -170.087
  O      177.799    -125.896    -169.651
  O      179.167    -124.653    -167.865
  H      180.017    -122.310    -174.627
  H      179.020    -125.463    -167.344
  H      181.669    -120.000    -168.087
  H      180.121    -120.732    -169.879
  H      180.712    -120.292    -173.227
  H      182.277    -122.629    -172.944
  H      180.743    -123.576    -171.385
  H      178.511    -122.653    -173.283
  H      185.227    -119.285    -168.896
  H      177.337    -122.424    -170.983
  H      184.043    -119.240    -167.620
  H      177.536    -124.063    -171.642
  P      181.135    -125.893    -172.753
  C      179.323    -126.754    -171.130
  O      180.177    -127.073    -172.227
  O      182.306    -125.583    -171.886
  O      181.543    -126.396    -174.220
  H      182.191    -125.780    -174.644
  H      178.738    -127.612    -170.872
  H      178.674    -125.950    -171.406
  H      179.917    -126.461    -170.289

 6  7  8  9  10  11  12  13  14  15  16  26  30  31  32  33  35 0
 6-311+G(2d,p)
 ****
 37  38 0
 6-311+G(2d,p)
 ****
 1  2  3  4  5  17  18  19  20  21  22  23  24  25 0
 3-21G
 ****
 27  28  29  34  36  39  40  41  42  43  44  45  46 0
 3-21G
 ****


