%nproc=1
%NoSave
%Mem=1900MB
#P OB98/GEN NMR

erre ene a

0 1
  C     -131.141      40.445     280.344
  O     -130.362      39.391     280.878
  H     -131.409      40.192     279.311
  H     -130.559      41.372     280.341
  H     -132.057      40.578     280.926
  P     -130.013      39.475     282.445
  C     -127.527      38.643     282.226
  O     -128.848      38.398     282.686
  C     -126.728      37.338     282.168
  O     -127.281      36.501     281.119
  C     -125.235      37.543     281.864
  O     -124.490      36.560     282.587
  C     -125.140      37.252     280.372
  O     -123.824      36.877     279.985
  C     -126.213      36.159     280.207
  N     -126.691      36.046     278.832
  C     -125.877      35.337     277.937
  O     -124.802      34.862     278.327
  N     -126.270      35.229     276.628
  C     -127.345      35.826     276.224
  N     -127.664      35.698     274.907
  C     -128.213      36.622     277.119
  C     -127.834      36.679     278.400
  O     -131.303      38.795     283.106
  O     -129.721      40.853     282.939
  H     -123.881      36.327     279.174
  H     -131.586      37.981     282.654
  H     -129.095      37.107     276.734
  H     -128.419      37.232     279.128
  H     -125.811      35.181     280.516
  H     -125.422      38.143     279.799
  H     -124.884      38.544     282.124
  H     -126.865      36.797     283.113
  H     -127.029      35.162     274.324
  H     -127.021      39.349     282.891
  H     -128.448      36.166     274.474
  H     -127.597      39.097     281.231
  P     -123.378      37.033     283.639
  C     -121.784      35.007     283.381
  O     -122.645      35.743     284.249
  O     -123.820      38.046     284.641
  O     -122.237      37.653     282.688
  H     -121.896      38.463     283.118
  H     -121.365      34.179     283.913
  H     -120.997      35.644     283.035
  H     -122.345      34.646     282.544

 6  7  8  9  10  11  12  13  14  15  16  26  30  31  32  33  35 0
 6-311+G(2d,p)
 ****
 37  38 0
 6-311+G(2d,p)
 ****
 1  2  3  4  5  17  18  19  20  21  22  23  24  25 0
 3-21G
 ****
 27  28  29  34  36  39  40  41  42  43  44  45  46 0
 3-21G
 ****


