%nproc=1
%NoSave
%Mem=1900MB
#P OB98/GEN NMR

erre ene a

0 1
  C      352.020    -431.571     138.028
  O      351.830    -431.468     136.620
  P      350.392    -431.865     136.037
  C      350.086    -430.193     134.038
  O      350.380    -431.508     134.476
  C      351.278    -429.248     134.287
  O      352.453    -429.819     133.649
  C      351.136    -427.848     133.696
  O      352.074    -426.981     134.343
  C      351.564    -428.076     132.263
  O      351.909    -426.853     131.618
  C      352.712    -429.099     132.418
  N      352.811    -430.048     131.288
  C      353.399    -429.611     130.102
  O      353.833    -428.473     129.930
  N      353.434    -430.518     129.078
  C      352.993    -431.807     129.128
  O      352.969    -432.549     128.158
  C      352.517    -432.257     130.444
  C      352.440    -431.377     131.438
  O      349.407    -430.792     136.693
  O      349.986    -433.264     136.350
  H      352.770    -426.564     132.003
  H      348.884    -431.203     137.405
  H      353.797    -430.194     128.191
  H      352.218    -433.296     130.546
  H      352.074    -431.691     132.415
  H      353.683    -428.596     132.502
  H      350.742    -428.520     131.694
  H      350.127    -427.430     133.762
  H      351.477    -429.199     135.361
  H      349.198    -429.821     134.550
  H      349.851    -430.205     132.970
  P      351.596    -425.493     134.703
  C      352.326    -425.257     137.152
  O      352.617    -424.946     135.804
  O      350.147    -425.334     135.024
  O      352.009    -424.662     133.394
  H      351.509    -423.820     133.368
  H      353.265    -425.317     137.712
  H      351.802    -426.214     137.240
  H      351.703    -424.467     137.579
  H      353.019    -431.277     138.276
  H      351.859    -432.583     138.337
  H      351.325    -430.931     138.530

 3  4  5  6  7  8  9  10  11  12  13  23  28  29  30  31  32 0
 6-311+G(2d,p)
 ****
 33  34 0
 6-311+G(2d,p)
 ****
 1  2  14  15  16  17  18  19  20  21  22  24  25  26  27 0
 3-21G
 ****
 35  36  37  38  39  40  41  42  43  44  45 0
 3-21G
 ****


