%nproc=1
%NoSave
%Mem=1900MB
#P OB98/GEN NMR

erre ene a

0 1
  C      424.817    -190.128    -935.770
  O      424.201    -190.567    -934.575
  H      424.598    -189.068    -935.902
  H      424.406    -190.684    -936.617
  H      425.899    -190.264    -935.730
  P      424.648    -191.967    -933.950
  C      422.587    -193.440    -934.497
  O      423.941    -193.122    -934.817
  C      422.223    -194.844    -934.981
  O      423.008    -195.827    -934.257
  C      420.749    -195.140    -934.688
  O      420.190    -196.062    -935.622
  C      420.799    -195.798    -933.316
  O      419.656    -196.594    -933.031
  C      422.104    -196.587    -933.422
  N      422.063    -199.319    -929.112
  C      421.142    -199.293    -930.139
  N      420.056    -200.080    -929.994
  N      421.269    -198.541    -931.213
  C      422.364    -197.752    -931.192
  C      423.338    -197.670    -930.212
  C      423.212    -198.525    -929.055
  O      423.990    -198.578    -928.113
  N      424.296    -196.736    -930.543
  C      423.896    -196.250    -931.694
  N      422.737    -196.849    -932.139
  O      423.845    -192.043    -932.558
  O      426.119    -192.156    -933.737
  H      418.871    -196.075    -933.277
  H      424.300    -192.620    -931.933
  H      421.923    -199.916    -928.320
  H      424.411    -195.469    -932.257
  H      421.929    -197.554    -933.904
  H      420.840    -194.997    -932.563
  H      419.830    -200.530    -929.114
  H      420.145    -194.239    -934.684
  H      419.239    -199.859    -930.572
  H      422.476    -194.965    -936.043
  H      421.954    -192.692    -934.998
  H      422.421    -193.346    -933.423
  P      419.145    -195.488    -936.699
  C      416.985    -195.847    -935.233
  O      417.874    -194.942    -935.884
  O      418.608    -196.801    -937.432
  O      419.740    -194.508    -937.646
  H      418.996    -196.873    -938.323
  H      416.207    -195.296    -934.748
  H      417.525    -196.417    -934.506
  H      416.556    -196.508    -935.957

 6  7  8  9  10  11  12  13  14  15  26  29  33  34 0
 6-311+G(2d,p)
 ****
 36  38  39  40  41 0
 6-311+G(2d,p)
 ****
 1  2  3  4  5  16  17  18  19  20  21  22  23  24  25 0
 3-21G
 ****
 27  28  30  31  32  35  37  42  43  44  45  46  47 0
 3-21G
 ****
 48  49 0
 3-21G
 ****


