%nproc=1
%NoSave
%Mem=1900MB
#P OB98/GEN NMR

erre ene a

0 1
  C     -429.901     343.521    -183.013
  O     -428.800     342.787    -182.488
  P     -428.996     341.819    -181.224
  C     -428.999     342.393    -178.714
  O     -429.482     342.754    -180.008
  C     -429.589     343.313    -177.644
  O     -429.098     344.661    -177.868
  C     -431.117     343.372    -177.674
  O     -431.591     343.487    -176.327
  C     -431.429     344.665    -178.403
  O     -432.713     345.186    -178.017
  C     -430.234     345.537    -178.013
  N     -430.048     350.567    -179.036
  C     -430.372     349.888    -177.912
  N     -430.427     348.554    -177.718
  C     -430.041     347.901    -178.827
  C     -429.671     348.454    -180.042
  C     -429.685     349.856    -180.132
  N     -429.338     350.546    -181.273
  N     -429.365     347.460    -180.949
  C     -429.526     346.336    -180.296
  N     -429.922     346.549    -179.001
  O     -427.825     340.950    -180.907
  O     -430.300     340.964    -181.566
  H     -432.984     345.824    -178.712
  H     -430.193     340.039    -181.260
  H     -430.638     350.506    -177.057
  H     -429.375     345.350    -180.701
  H     -430.397     346.034    -177.046
  H     -431.454     344.481    -179.486
  H     -431.574     342.496    -178.159
  H     -429.230     342.984    -176.664
  H     -427.909     342.489    -178.714
  H     -429.265     351.542    -181.204
  H     -428.907     350.025    -182.033
  H     -429.254     341.344    -178.509
  P     -433.080     342.920    -176.063
  C     -435.368     344.160    -175.877
  O     -434.051     344.149    -176.400
  O     -433.204     342.300    -174.702
  O     -433.246     341.899    -177.279
  H     -432.661     342.143    -178.036
  H     -435.879     345.048    -176.250
  H     -435.343     344.195    -174.783
  H     -435.912     343.266    -176.201
  H     -429.575     344.105    -183.848
  H     -430.292     344.168    -182.256
  H     -430.664     342.841    -183.330

 3  4  5  6  7  8  9  10  11  12  22  25  29  30  31  32 0
 6-311+G(2d,p)
 ****
 33  36  37 0
 6-311+G(2d,p)
 ****
 1  2  13  14  15  16  17  18  19  20  21  23  24  26 0
 3-21G
 ****
 27  28  34  35  38  39  40  41  42  43  44  45  46  47  48 0
 3-21G
 ****


