%nproc=1
%NoSave
%Mem=1900MB
#P OB98/GEN NMR

erre ene a

0 1
  C      -27.643     171.850     219.365
  O      -27.184     170.943     220.347
  H      -28.241     171.300     218.633
  H      -26.796     172.309     218.849
  H      -28.270     172.626     219.815
  P      -26.408     171.518     221.627
  C      -24.620     169.722     221.131
  O      -24.874     171.079     221.478
  C      -23.480     169.651     220.120
  O      -23.824     170.389     218.925
  C      -22.174     170.257     220.619
  O      -21.520     169.390     221.524
  C      -21.439     170.478     219.306
  O      -20.831     169.262     218.845
  C      -22.592     170.908     218.370
  N      -22.664     172.359     218.187
  C      -22.143     172.860     216.999
  O      -21.609     172.152     216.143
  N      -22.223     174.217     216.838
  C      -22.663     175.109     217.772
  O      -22.633     176.326     217.615
  C      -23.181     174.525     219.019
  C      -23.160     173.199     219.164
  O      -27.029     171.213     222.950
  O      -26.356     173.098     221.356
  H      -20.216     169.513     218.130
  H      -27.005     173.546     221.930
  H      -21.837     174.600     215.990
  H      -23.553     175.200     219.778
  H      -23.532     172.750     220.079
  H      -22.473     170.443     217.383
  H      -20.647     171.220     219.395
  H      -22.365     171.230     221.085
  H      -23.337     168.598     219.835
  H      -25.527     169.296     220.688
  H      -24.370     169.163     222.040
  P      -21.497     169.737     223.086
  C      -19.065     170.537     222.852
  O      -20.374     170.855     223.325
  O      -21.422     168.560     224.000
  O      -22.862     170.543     223.317
  H      -23.416     170.065     223.959
  H      -18.402     171.350     223.064
  H      -19.098     170.370     221.796
  H      -18.714     169.653     223.342

 6  7  8  9  10  11  12  13  14  15  16  26  31  32  33  34  35 0
 6-311+G(2d,p)
 ****
 36  37 0
 6-311+G(2d,p)
 ****
 1  2  3  4  5  17  18  19  20  21  22  23  24  25 0
 3-21G
 ****
 27  28  29  30  38  39  40  41  42  43  44  45 0
 3-21G
 ****


