%nproc=1
%NoSave
%Mem=1900MB
#P OB98/GEN NMR

erre ene a

0 1
  C      209.627     399.214     -27.870
  O      208.927     397.995     -28.048
  H      210.342     399.332     -28.689
  H      210.166     399.199     -26.920
  H      208.925     400.057     -27.889
  P      207.794     397.660     -26.965
  C      209.410     396.671     -25.170
  O      208.520     397.717     -25.533
  C      209.897     396.869     -23.732
  O      210.916     395.860     -23.444
  C      210.542     398.241     -23.480
  O      210.326     398.607     -22.104
  C      212.019     397.934     -23.687
  O      212.820     398.955     -23.143
  C      212.096     396.573     -23.006
  N      215.317     392.942     -21.445
  C      214.160     393.404     -20.926
  N      213.353     394.372     -21.411
  C      213.834     394.856     -22.568
  C      215.002     394.484     -23.219
  C      215.771     393.477     -22.605
  N      216.958     393.021     -23.117
  N      215.170     395.230     -24.371
  C      214.125     396.032     -24.417
  N      213.292     395.837     -23.349
  O      207.524     396.095     -27.191
  O      206.542     398.461     -27.068
  H      212.609     399.105     -22.200
  H      206.789     395.971     -27.818
  H      213.840     392.936     -19.999
  H      213.925     396.767     -25.185
  H      212.055     396.649     -21.910
  H      212.260     397.860     -24.753
  H      210.161     399.028     -24.136
  H      209.070     396.684     -23.038
  H      210.263     396.683     -25.859
  H      208.893     395.708     -25.252
  H      217.464     392.317     -22.601
  H      217.323     393.436     -23.960
  P      209.711     400.054     -21.772
  C      211.920     401.226     -21.022
  O      210.830     401.190     -21.933
  O      209.530     399.976     -20.181
  O      208.402     400.357     -22.427
  H      208.649     400.319     -19.933
  H      212.567     402.041     -21.272
  H      212.464     400.307     -21.081
  H      211.549     401.358     -20.027

 6  7  8  9  10  11  12  13  14  15  25  28  32  33  34  35 0
 6-311+G(2d,p)
 ****
 36  37  40 0
 6-311+G(2d,p)
 ****
 1  2  3  4  5  16  17  18  19  20  21  22  23  24 0
 3-21G
 ****
 26  27  29  30  31  38  39 41  42  43  44  45  46  47  48 0
 3-21G
 ****


