%nproc=1
%NoSave
%Mem=1900MB
#P OB98/GEN NMR

erre ene a

0 1
  C     -848.111    -708.079    -899.320
  O     -848.415    -708.541    -898.030
  H     -848.920    -708.358    -900.000
  H     -847.182    -708.552    -899.670
  H     -848.002    -706.988    -899.350
  P     -847.467    -708.104    -896.810
  C     -844.938    -708.150    -896.330
  O     -845.960    -708.301    -897.290
  C     -843.838    -709.204    -896.560
  O     -843.384    -709.108    -897.930
  C     -842.572    -708.984    -895.710
  O     -842.784    -709.393    -894.370
  C     -841.557    -709.800    -896.500
  O     -841.674    -711.197    -896.160
  C     -841.987    -709.532    -897.950
  N     -841.147    -708.559    -898.630
  C     -839.912    -709.001    -899.080
  O     -839.532    -710.181    -898.960
  N     -839.125    -708.049    -899.650
  C     -839.349    -706.711    -899.650
  O     -838.505    -705.872    -899.940
  C     -840.694    -706.302    -899.200
  C     -841.521    -707.218    -898.720
  O     -847.777    -708.735    -895.480
  O     -847.631    -706.507    -896.750
  H     -848.234    -706.268    -896.020
  H     -841.314    -711.278    -895.250
  H     -838.191    -708.368    -899.950
  H     -840.946    -705.248    -899.280
  H     -842.489    -706.909    -898.360
  H     -841.969    -710.486    -898.530
  H     -840.550    -709.486    -896.280
  H     -842.297    -707.915    -895.730
  H     -844.251    -710.199    -896.400
  H     -845.374    -708.326    -895.310
  H     -844.529    -707.145    -896.350
  P     -842.134    -708.567    -893.150
  C     -839.805    -707.832    -892.380
  O     -840.570    -708.413    -893.430
  O     -842.491    -709.057    -891.790
  O     -842.697    -707.062    -893.410
  H     -843.040    -706.731    -892.530
  H     -838.778    -707.778    -892.675
  H     -839.892    -708.434    -891.500
  H     -840.170    -706.847    -892.176

 6  7  8  9  10  11  12  13  14  15  16  27  31  32  33  34  35 0
 6-311+G(2d,p)
 ****
 36  37 0
 6-311+G(2d,p)
 ****
 1  2  3  4  5  17  18  19  20  21  22  23  24  25 0
 3-21G
 ****
 26  28  29  30  38  39  40  41  42  43  44  45 0
 3-21G
 ****


