%nproc=1
%NoSave
%Mem=1900MB
#P OB98/GEN NMR

erre ene a

0 1
  C     -895.330     -95.969    -895.400
  O     -894.450     -96.759    -896.180
  H     -896.350     -96.135    -895.750
  H     -895.090     -94.908    -895.500
  H     -895.280     -96.264    -894.350
  P     -892.880     -96.614    -895.930
  C     -892.440     -98.993    -895.030
  O     -892.500     -97.606    -894.730
  C     -893.490     -99.762    -894.210
  O     -894.820     -99.384    -894.670
  C     -893.380    -101.305    -894.370
  O     -893.840    -101.885    -893.150
  C     -894.360    -101.560    -895.500
  O     -894.690    -102.926    -895.600
  C     -895.490    -100.597    -895.100
  N     -896.410    -100.345    -896.200
  C     -897.610    -101.059    -896.180
  O     -897.830    -101.851    -895.260
  N     -898.510    -100.867    -897.190
  C     -898.210    -100.088    -898.190
  N     -899.150     -99.969    -899.170
  C     -896.920     -99.370    -898.290
  C     -896.080     -99.532    -897.270
  O     -892.370     -95.217    -895.770
  O     -892.220     -97.318    -897.210
  H     -895.140    -103.241    -894.780
  H     -891.870     -96.638    -897.830
  H     -896.720     -98.753    -899.150
  H     -895.110     -99.050    -897.250
  H     -896.060    -100.983    -894.250
  H     -893.930    -101.267    -896.460
  H     -892.360    -101.641    -894.590
  H     -893.420     -99.474    -893.160
  H     -900.000    -100.480    -899.070
  H     -891.430     -99.344    -894.770
  H     -899.010     -99.400    -900.000
  H     -892.610     -99.157    -896.100
  P     -892.850    -102.499    -892.040
  C     -893.930    -101.826    -889.800
  O     -892.880    -101.573    -890.740
  O     -891.480    -102.797    -892.560
  O     -893.570    -103.854    -891.570
  H     -892.890    -104.494    -891.290
  H     -893.844    -101.146    -888.978
  H     -893.853    -102.831    -889.441
  H     -894.877    -101.689    -890.278

 6  7  8  9  10  11  12  13  14  15  16  26  30  31  32  33  35 0
 6-311+G(2d,p)
 ****
 37  38 0
 6-311+G(2d,p)
 ****
 1  2  3  4  5  17  18  19  20  21  22  23  24  25 0
 3-21G
 ****
 27  28  29  34  36  39  40  41  42  43  44  45  46 0
 3-21G
 ****


