%nproc=1
%NoSave
%Mem=1900MB
#P OB98/GEN NMR

erre ene a

0 1
  C     -115.944    -188.213      74.575
  O     -115.611    -189.583      74.716
  P     -114.064    -189.995      74.676
  C     -114.058    -190.023      72.079
  O     -113.462    -189.519      73.266
  C     -112.993    -190.542      71.112
  O     -112.108    -189.453      70.735
  C     -112.120    -191.655      71.699
  O     -111.751    -192.569      70.655
  C     -110.862    -190.927      72.128
  O     -109.744    -191.812      72.202
  C     -110.758    -189.864      71.035
  N     -106.055    -188.230      71.898
  C     -106.482    -189.364      71.236
  N     -105.519    -190.220      70.825
  N     -107.737    -189.633      70.993
  C     -108.589    -188.691      71.468
  C     -108.284    -187.520      72.125
  C     -106.891    -187.241      72.399
  O     -106.449    -186.272      73.005
  N     -109.414    -186.803      72.419
  C     -110.405    -187.553      71.983
  N     -109.956    -188.726      71.430
  O     -114.122    -191.590      74.540
  O     -113.279    -189.590      75.877
  H     -108.962    -191.265      72.410
  H     -113.889    -192.003      75.392
  H     -105.075    -188.075      72.070
  H     -111.457    -187.312      72.063
  H     -110.328    -190.275      70.113
  H     -111.006    -190.476      73.116
  H     -104.540    -190.104      71.040
  H     -112.583    -192.209      72.521
  H     -105.809    -191.080      70.377
  H     -113.489    -190.882      70.195
  H     -114.621    -189.224      71.595
  H     -114.757    -190.827      72.333
  P     -112.134    -194.109      70.904
  C     -109.565    -194.523      70.833
  O     -110.803    -194.807      71.455
  O     -112.289    -194.694      69.423
  O     -113.364    -194.309      71.727
  H     -112.886    -195.465      69.425
  H     -108.910    -194.031      71.560
  H     -109.679    -193.875      69.960
  H     -109.104    -195.462      70.518
  H     -117.007    -188.098      74.622
  H     -115.588    -187.855      73.632
  H     -115.489    -187.652      75.365

 3  4  5  6  7  8  9  10  11  12  23  26  30  31 0
 6-311+G(2d,p)
 ****
 33  35  36  37  38 0
 6-311+G(2d,p)
 ****
 1  2  13  14  15  16  17  18  19  20  21  22  24  25 0
 3-21G
 ****
 27  28  29  32  34  39  40  41  42  43  44  45  46  47  48  49 0
 3-21G
 ****


