%nproc=1
%NoSave
%Mem=1900MB
#P OB98/GEN NMR

erre ene a

0 1
  C       33.366     697.846     136.810
  O       31.970     697.722     137.024
  P       31.167     696.460     136.454
  C       30.674     697.217     134.043
  O       31.488     696.400     134.880
  C       30.096     696.393     132.899
  O       31.101     696.111     131.895
  C       29.585     695.016     133.323
  O       28.464     694.978     134.185
  C       29.457     694.329     131.974
  O       28.238     694.683     131.322
  C       30.669     694.902     131.209
  N       31.763     693.929     131.089
  C       31.814     693.216     129.894
  O       31.008     693.378     128.973
  N       32.810     692.291     129.799
  C       33.707     691.976     130.775
  O       34.544     691.091     130.646
  C       33.589     692.737     132.030
  C       32.635     693.669     132.125
  O       29.720     696.416     136.797
  O       32.011     695.200     137.009
  H       27.500     694.365     131.882
  H       32.937     695.181     136.721
  H       32.867     691.751     128.948
  H       34.299     692.520     132.818
  H       32.530     694.250     133.036
  H       30.382     695.211     130.199
  H       29.456     693.235     132.078
  H       30.398     694.506     133.861
  H       29.305     696.983     132.411
  H       31.290     698.021     133.624
  H       29.881     697.680     134.637
  P       28.419     694.078     135.516
  C       26.835     692.267     134.555
  O       28.112     692.567     135.091
  O       27.664     694.646     136.667
  O       29.981     693.996     135.901
  H       30.066     693.932     136.874
  H       26.786     691.194     134.372
  H       26.685     692.793     133.615
  H       26.048     692.533     135.265
  H       33.718     698.749     137.264
  H       33.565     697.874     135.759
  H       33.869     697.008     137.246

 3  4  5  6  7  8  9  10  11  12  13  23  28  29  30  31  32 0
 6-311+G(2d,p)
 ****
 33  34 0
 6-311+G(2d,p)
 ****
 1  2  14  15  16  17  18  19  20  21  22  24  25  26  27 0
 3-21G
 ****
 35  36  37  38  39  40  41  42  43  44  45 0
 3-21G
 ****


