%nproc=1
%NoSave
%Mem=1900MB
#P OB98/GEN NMR

erre ene a

0 1
  C      -51.075     246.771    -310.952
  O      -50.163     246.381    -311.977
  P      -49.373     244.995    -312.014
  C      -47.454     246.245    -310.737
  O      -47.830     245.287    -311.717
  C      -45.999     246.740    -310.898
  O      -45.098     245.617    -310.764
  C      -45.786     247.314    -312.296
  O      -46.144     248.653    -312.585
  C      -44.334     246.984    -312.628
  O      -43.434     248.048    -312.307
  C      -44.044     245.756    -311.751
  N      -41.029     242.785    -314.620
  C      -40.764     244.034    -314.090
  N      -39.581     244.589    -314.397
  N      -41.613     244.688    -313.338
  C      -42.799     244.056    -313.174
  C      -43.179     242.826    -313.671
  C      -42.217     242.086    -314.457
  O      -42.384     240.969    -314.940
  N      -44.477     242.522    -313.318
  C      -44.884     243.567    -312.640
  N      -43.899     244.530    -312.514
  O      -49.687     244.107    -313.171
  O      -49.879     244.245    -310.671
  H      -42.545     247.667    -312.214
  H      -49.883     243.281    -310.873
  H      -40.326     242.312    -315.173
  H      -45.871     243.682    -312.214
  H      -43.111     245.878    -311.189
  H      -44.215     246.787    -313.702
  H      -38.935     244.200    -315.070
  H      -46.382     246.712    -312.989
  H      -39.478     245.594    -314.191
  H      -45.740     247.438    -310.102
  H      -47.591     245.768    -309.759
  H      -48.139     247.103    -310.769
  P      -47.537     249.146    -313.196
  C      -46.765     249.058    -315.637
  O      -47.238     249.883    -314.586
  O      -47.967     250.363    -312.244
  O      -48.610     248.106    -313.251
  H      -48.915     250.567    -312.363
  H      -46.308     249.692    -316.410
  H      -47.604     248.506    -316.074
  H      -46.013     248.351    -315.275
  H      -51.463     247.744    -311.171
  H      -50.566     246.794    -310.011
  H      -51.880     246.068    -310.905

 3  4  5  6  7  8  9  10  11  12  23  26  30  31 0
 6-311+G(2d,p)
 ****
 33  35  36  37  38 0
 6-311+G(2d,p)
 ****
 1  2  13  14  15  16  17  18  19  20  21  22  24  25 0
 3-21G
 ****
 27  28  29  32  34  39  40  41  42  43  44  45  46  47  48  49 0
 3-21G
 ****


