%nproc=1
%NoSave
%Mem=1900MB
#P OB98/GEN NMR

erre ene a

0 1
  C     -566.241     238.936     467.552
  O     -564.903     239.405     467.666
  P     -563.890     239.066     466.465
  C     -563.131     241.570     466.637
  O     -562.761     240.202     466.516
  C     -562.015     242.370     467.319
  O     -561.687     241.779     468.605
  C     -560.706     242.385     466.543
  O     -560.783     243.252     465.422
  C     -559.741     242.817     467.626
  O     -559.796     244.243     467.822
  C     -560.304     242.102     468.868
  N     -559.550     240.908     469.253
  C     -558.530     241.115     470.197
  O     -558.272     242.221     470.670
  N     -557.825     240.005     470.561
  C     -558.003     238.745     470.069
  O     -557.349     237.782     470.446
  C     -559.049     238.600     469.040
  C     -559.766     239.672     468.685
  O     -564.783     239.456     465.195
  O     -563.399     237.659     466.495
  H     -565.368     240.219     465.356
  H     -559.635     244.646     466.952
  H     -557.101     240.126     471.255
  H     -559.201     237.619     468.609
  H     -560.538     239.594     467.919
  H     -560.315     242.787     469.726
  H     -558.696     242.553     467.387
  H     -560.453     241.378     466.198
  H     -562.375     243.385     467.484
  H     -564.050     241.666     467.226
  H     -563.348     241.969     465.642
  P     -560.508     242.600     463.976
  C     -562.690     243.715     463.039
  O     -561.298     243.518     462.912
  O     -561.394     241.271     464.072
  O     -559.068     242.378     463.686
  H     -562.271     241.411     464.454
  H     -562.969     244.606     462.467
  H     -562.976     243.867     464.081
  H     -563.229     242.850     462.628
  H     -566.798     239.232     468.416
  H     -566.240     237.869     467.477
  H     -566.692     239.354     466.676

 3  4  5  6  7  8  9  10  11  12  13  24  28  29  30  31  32 0
 6-311+G(2d,p)
 ****
 33  34 0
 6-311+G(2d,p)
 ****
 1  2  14  15  16  17  18  19  20  21  22  23  25  26  27 0
 3-21G
 ****
 35  36  37  38  39  40  41  42  43  44  45 0
 3-21G
 ****


