%nproc=1
%NoSave
%Mem=1900MB
#P OB98/GEN NMR

erre ene a

0 1
  C       79.318      88.944     -65.895
  O       78.817      89.571     -64.727
  P       77.347      89.247     -64.162
  C       76.188      87.043     -63.462
  O       77.209      87.651     -64.234
  C       75.429      86.011     -64.300
  O       74.645      86.713     -65.300
  C       76.328      85.010     -65.034
  O       75.636      83.756     -65.061
  C       76.422      85.598     -66.429
  O       76.778      84.633     -67.408
  C       75.014      86.184     -66.590
  N       74.952      87.216     -67.619
  C       74.442      86.858     -68.867
  O       74.083      85.703     -69.097
  N       74.350      87.822     -69.840
  C       74.806      89.015     -69.615
  N       74.636      89.950     -70.589
  C       75.450      89.405     -68.346
  C       75.467      88.473     -67.398
  O       76.244      89.999     -64.824
  O       77.463      89.500     -62.591
  H       76.848      85.084     -68.271
  H       77.325      90.449     -62.342
  H       75.841      90.406     -68.216
  H       75.898      88.678     -66.428
  H       74.297      85.387     -66.820
  H       77.182      86.387     -66.442
  H       77.299      84.876     -64.548
  H       74.726      85.484     -63.644
  H       74.040      89.693     -71.368
  H       75.487      87.821     -63.142
  H       74.662      90.941     -70.372
  H       76.623      86.583     -62.569
  P       76.494      82.417     -65.286
  C       78.468      81.241     -64.083
  O       77.689      82.410     -64.221
  O       77.267      82.755     -66.654
  O       75.718      81.150     -65.443
  H       77.493      81.920     -67.104
  H       79.235      81.419     -63.324
  H       78.965      80.996     -65.027
  H       77.847      80.401     -63.763
  H       80.308      89.299     -66.094
  H       78.683      89.175     -66.724
  H       79.342      87.884     -65.749

 3  4  5  6  7  8  9  10  11  12  13  23  27  28  29  30  32 0
 6-311+G(2d,p)
 ****
 34  35 0
 6-311+G(2d,p)
 ****
 1  2  14  15  16  17  18  19  20  21  22  24  25  26 0
 3-21G
 ****
 31  33  36  37  38  39  40  41  42  43  44  45  46 0
 3-21G
 ****


