%nproc=1
%NoSave
%Mem=1900MB
#P OB98/GEN NMR

erre ene a

0 1
  C     -936.877    -891.445     724.615
  O     -935.867    -892.319     724.176
  H     -936.607    -891.063     725.598
  H     -937.828    -891.972     724.702
  H     -936.980    -890.599     723.927
  P     -936.030    -893.026     722.740
  C     -935.122    -890.983     721.415
  O     -934.894    -892.336     721.823
  C     -933.851    -890.167     721.581
  O     -933.424    -890.138     722.968
  C     -932.629    -890.701     720.825
  O     -932.694    -890.480     719.426
  C     -931.534    -889.899     721.490
  O     -931.544    -888.542     720.996
  C     -931.983    -889.954     722.978
  N     -931.321    -891.042     723.723
  C     -930.100    -890.731     724.320
  O     -929.606    -889.615     724.208
  N     -929.438    -891.734     725.008
  C     -929.939    -892.930     725.053
  N     -929.239    -893.861     725.755
  C     -931.224    -893.291     724.432
  C     -931.858    -892.320     723.788
  O     -937.410    -893.025     722.163
  O     -935.418    -894.496     722.940
  H     -931.321    -888.581     720.053
  H     -935.507    -894.978     722.080
  H     -931.584    -894.308     724.480
  H     -932.801    -892.506     723.290
  H     -931.768    -889.013     723.483
  H     -930.533    -890.298     721.315
  H     -932.472    -891.763     721.054
  H     -934.075    -889.131     721.301
  H     -928.371    -893.587     726.176
  H     -935.943    -890.575     722.014
  H     -929.523    -894.849     725.782
  H     -935.409    -890.967     720.355
  P     -931.738    -891.400     718.508
  C     -933.458    -893.364     718.428
  O     -932.700    -892.402     717.710
  O     -930.999    -892.346     719.573
  O     -930.766    -890.653     717.643
  H     -930.101    -891.998     719.787
  H     -934.040    -893.944     717.742
  H     -934.109    -892.865     719.115
  H     -932.796    -894.008     718.968

 6  7  8  9  10  11  12  13  14  15  16  26  30  31  32  33  35 0
 6-311+G(2d,p)
 ****
 37  38 0
 6-311+G(2d,p)
 ****
 1  2  3  4  5  17  18  19  20  21  22  23  24  25 0
 3-21G
 ****
 27  28  29  34  36  39  40  41  42  43  44  45  46 0
 3-21G
 ****


