%nproc=1
%NoSave
%Mem=1900MB
#P OB98/GEN NMR

erre ene a

0 1
  C     -202.479    -515.723      -1.244
  O     -202.843    -514.906      -2.338
  H     -201.554    -516.250      -1.497
  H     -203.260    -516.462      -1.055
  H     -202.307    -515.121      -0.348
  P     -204.093    -513.912      -2.186
  C     -206.045    -515.408      -2.976
  O     -205.385    -514.815      -1.865
  C     -207.415    -515.960      -2.563
  O     -207.213    -517.199      -1.825
  C     -208.219    -515.005      -1.672
  O     -209.602    -515.104      -2.015
  C     -207.993    -515.560      -0.275
  O     -209.060    -515.230       0.616
  C     -207.864    -517.057      -0.541
  N     -208.185    -519.809       3.692
  C     -209.178    -519.367       2.831
  N     -210.454    -519.698       3.160
  N     -208.945    -518.668       1.752
  C     -207.628    -518.433       1.535
  C     -206.550    -518.817       2.306
  C     -206.830    -519.568       3.516
  O     -205.987    -519.973       4.320
  N     -205.369    -518.371       1.770
  C     -205.729    -517.723       0.674
  N     -207.091    -517.724       0.494
  O     -204.278    -512.948      -3.314
  O     -203.827    -513.154      -0.804
  H     -209.895    -515.506       0.187
  H     -203.530    -512.239      -0.956
  H     -208.425    -520.335       4.511
  H     -205.051    -517.240      -0.018
  H     -208.837    -517.561      -0.589
  H     -207.066    -515.150       0.139
  H     -210.697    -520.253       3.963
  H     -207.889    -513.973      -1.769
  H     -211.192    -519.411       2.526
  H     -207.971    -516.219      -3.472
  H     -205.412    -516.230      -3.352
  H     -206.159    -514.663      -3.769
  P     -210.227    -514.041      -3.041
  C     -210.539    -512.167      -1.302
  O     -209.904    -512.554      -2.514
  O     -211.645    -514.278      -3.429
  O     -209.264    -514.172      -4.322
  H     -209.788    -514.038      -5.137
  H     -210.252    -511.167      -1.052
  H     -210.242    -512.830      -0.516
  H     -211.601    -512.213      -1.425

 6  7  8  9  10  11  12  13  14  15  26  29  33  34 0
 6-311+G(2d,p)
 ****
 36  38  39  40  41 0
 6-311+G(2d,p)
 ****
 1  2  3  4  5  16  17  18  19  20  21  22  23  24  25 0
 3-21G
 ****
 27  28  30  31  32  35  37  42  43  44  45  46  47 0
 3-21G
 ****
 48  49 0
 3-21G
 ****


