%nproc=1
%NoSave
%Mem=1900MB
#P OB98/GEN NMR

erre ene a

0 1
  C      730.635    -475.870     -35.095
  O      729.321    -476.216     -35.493
  H      731.369    -476.462     -35.649
  H      730.797    -474.811     -35.313
  H      730.750    -476.031     -34.015
  P      728.918    -477.758     -35.356
  C      730.050    -479.947     -36.175
  O      729.826    -478.568     -36.410
  C      731.044    -480.500     -37.187
  O      732.392    -480.145     -36.813
  C      731.052    -482.023     -37.308
  O      729.971    -482.501     -38.100
  C      732.395    -482.249     -37.991
  O      732.260    -482.002     -39.408
  C      733.274    -481.164     -37.356
  N      738.122    -482.012     -35.883
  C      737.604    -481.489     -37.029
  N      736.304    -481.308     -37.353
  C      735.507    -481.698     -36.343
  C      735.893    -482.242     -35.137
  C      737.263    -482.401     -34.911
  N      737.787    -482.939     -33.761
  N      734.793    -482.512     -34.346
  C      733.751    -482.132     -35.070
  N      734.137    -481.649     -36.294
  O      727.457    -477.829     -36.004
  O      728.927    -478.304     -33.961
  H      732.208    -481.033     -39.514
  H      726.922    -478.480     -35.514
  H      738.330    -481.191     -37.775
  H      732.717    -482.195     -34.754
  H      733.907    -480.665     -38.106
  H      732.773    -483.261     -37.870
  H      731.071    -482.507     -36.317
  H      730.834    -480.042     -38.164
  H      729.101    -480.488     -36.269
  H      738.773    -482.841     -33.579
  H      737.136    -483.217     -33.032
  H      730.431    -480.081     -35.155
  P      729.519    -484.022     -37.888
  C      730.550    -486.333     -38.456
  O      730.688    -484.922     -38.523
  O      728.318    -484.188     -38.933
  O      729.097    -484.376     -36.499
  H      727.723    -484.901     -38.639
  H      731.398    -486.797     -38.916
  H      729.659    -486.629     -38.970
  H      730.489    -486.637     -37.432

 6  7  8  9  10  11  12  13  14  15  25  28  32  33  34  35 0
 6-311+G(2d,p)
 ****
 36  39  40 0
 6-311+G(2d,p)
 ****
 1  2  3  4  5  16  17  18  19  20  21  22  23  24 0
 3-21G
 ****
 26  27  29  30  31  37  38  41  42  43  44  45  46  47  48 0
 3-21G
 ****


