%nproc=1
%NoSave
%Mem=1900MB
#P OB98/GEN NMR

erre ene a

0 1
  C      136.312     374.598     190.329
  O      137.169     373.707     189.652
  H      136.778     374.894     191.272
  H      135.356     374.112     190.550
  H      136.140     375.501     189.729
  P      136.798     373.253     188.164
  C      134.657     372.236     187.139
  O      135.510     372.294     188.274
  C      133.326     371.600     187.527
  O      132.634     372.426     188.493
  C      132.356     371.432     186.360
  O      132.728     370.357     185.519
  C      131.044     371.255     187.101
  O      130.880     369.899     187.536
  C      131.216     372.195     188.313
  N      130.493     373.464     188.127
  C      129.124     373.421     188.338
  O      128.519     372.407     188.672
  N      128.452     374.583     188.098
  C      128.984     375.715     187.537
  O      128.305     376.644     187.112
  C      130.443     375.724     187.399
  C      131.133     374.612     187.680
  O      137.922     372.709     187.349
  O      136.189     374.585     187.506
  H      136.866     374.995     186.931
  H      130.840     369.358     186.716
  H      127.444     374.553     188.210
  H      130.924     376.626     187.027
  H      132.203     374.579     187.548
  H      130.858     371.716     189.228
  H      130.184     371.506     186.466
  H      132.313     372.371     185.785
  H      133.528     370.628     188.001
  H      135.140     371.637     186.364
  H      134.502     373.251     186.754
  P      132.344     370.387     183.957
  C      130.063     370.618     182.794
  O      130.803     369.954     183.818
  O      133.282     369.649     183.056
  O      132.311     371.941     183.592
  H      132.850     372.089     182.780
  H      129.056     370.256     182.790
  H      130.516     370.424     181.844
  H      130.063     371.672     182.980

 6  7  8  9  10  11  12  13  14  15  16  27  31  32  33  34  35 0
 6-311+G(2d,p)
 ****
 36  37 0
 6-311+G(2d,p)
 ****
 1  2  3  4  5  17  18  19  20  21  22  23  24  25 0
 3-21G
 ****
 26  28  29  30  38  39  40  41  42  43  44  45 0
 3-21G
 ****


