%nproc=1
%NoSave
%Mem=1900MB
#P OB98/GEN NMR

erre ene a

0 1
  C        2.435     426.896     362.637
  O        3.179     426.417     363.740
  H        1.936     427.820     362.924
  H        1.678     426.161     362.342
  H        3.104     427.096     361.797
  P        3.950     425.025     363.543
  C        1.976     423.769     364.635
  O        2.777     423.928     363.467
  C        1.245     422.429     364.604
  O        2.211     421.370     364.837
  C        0.152     422.300     365.672
  O       -0.934     421.535     365.144
  C        0.832     421.495     366.764
  O       -0.105     420.818     367.602
  C        1.736     420.576     365.943
  N        3.250     416.711     368.885
  C        2.171     416.872     368.088
  N        1.855     417.935     367.317
  C        2.822     418.869     367.378
  C        3.979     418.844     368.138
  C        4.173     417.697     368.933
  N        5.253     417.535     369.769
  N        4.696     420.010     367.966
  C        3.997     420.722     367.104
  N        2.849     420.079     366.735
  O        5.028     424.733     364.532
  O        4.429     425.125     362.017
  H       -0.548     420.120     367.079
  H        3.707     425.431     361.439
  H        1.463     416.051     368.074
  H        4.260     421.705     366.726
  H        1.202     419.705     365.547
  H        1.429     422.158     367.400
  H       -0.215     423.261     366.033
  H        0.837     422.270     363.595
  H        1.243     424.584     364.705
  H        5.316     416.680     370.306
  H        5.957     418.253     369.821
  H        2.642     423.820     365.508
  P       -2.297     422.297     364.756
  C       -3.423     422.507     367.066
  O       -2.763     423.188     366.008
  O       -3.368     421.445     364.164
  O       -1.801     423.407     363.710
  H       -2.445     423.458     362.971
  H       -3.681     423.206     367.834
  H       -2.773     421.758     367.468
  H       -4.312     422.044     366.692

 6  7  8  9  10  11  12  13  14  15  25  28  32  33  34  35 0
 6-311+G(2d,p)
 ****
 36  39  40 0
 6-311+G(2d,p)
 ****
 1  2  3  4  5  16  17  18  19  20  21  22  23  24 0
 3-21G
 ****
 26  27  29  30  31  37  38  41  42  43  44  45  46  47 0
 3-21G
 ****
 48 0
 3-21G
 ****


