%nproc=1
%NoSave
%Mem=1900MB
#P OB98/GEN NMR

erre ene a

0 1
  C      134.080      75.552      51.449
  O      134.037      75.673      50.036
  P      134.932      76.765      49.271
  C      135.053      79.331      49.380
  O      134.260      78.177      49.627
  C      134.191      80.587      49.460
  O      133.203      80.531      48.404
  C      133.391      80.769      50.751
  O      134.114      81.368      51.815
  C      132.307      81.728      50.275
  O      132.832      83.068      50.216
  C      132.008      81.212      48.866
  N      126.909      80.834      48.638
  C      127.739      81.902      48.618
  N      129.088      81.922      48.703
  C      129.573      80.670      48.772
  C      128.853      79.487      48.797
  C      127.453      79.600      48.726
  N      126.610      78.508      48.723
  N      129.703      78.400      48.895
  C      130.910      78.925      48.915
  N      130.886      80.290      48.834
  O      135.138      76.490      47.823
  O      136.301      76.800      50.096
  H      133.137      83.292      51.116
  H      137.000      77.231      49.566
  H      127.257      82.874      48.529
  H      131.828      78.358      48.991
  H      131.799      82.020      48.156
  H      131.440      81.755      50.945
  H      132.925      79.827      51.066
  H      134.832      81.460      49.275
  H      135.476      79.248      48.373
  H      125.634      78.677      48.537
  H      127.020      77.590      48.624
  H      135.878      79.371      50.099
  P      133.730      80.912      53.310
  C      131.462      80.957      54.616
  O      132.251      81.479      53.568
  O      134.743      81.262      54.343
  O      133.499      79.333      53.149
  H      132.730      79.079      52.614
  H      130.569      81.581      54.723
  H      132.011      80.972      55.561
  H      131.152      79.936      54.383
  H      133.416      74.773      51.761
  H      133.779      76.477      51.895
  H      135.077      75.315      51.757

 3  4  5  6  7  8  9  10  11  12  22  25  29  30  31  32 0
 6-311+G(2d,p)
 ****
 33  36  37 0
 6-311+G(2d,p)
 ****
 1  2  13  14  15  16  17  18  19  20  21  23  24  26 0
 3-21G
 ****
 27  28  34  35  38  39  40  41  42  43  44  45  46  47  48 0
 3-21G
 ****


