%nproc=1
%NoSave
%Mem=1900MB
#P OB98/GEN NMR

erre ene a

0 1
  C      268.816     239.072      35.507
  O      269.231     239.090      36.875
  P      268.409     238.305      38.027
  C      267.518     240.220      39.490
  O      267.183     239.204      38.554
  C      266.368     240.590      40.431
  O      265.220     241.084      39.682
  C      265.845     239.433      41.302
  O      265.389     240.031      42.521
  C      264.668     238.918      40.491
  O      263.761     238.127      41.244
  C      264.097     240.225      39.968
  N      259.304     239.551      38.256
  C      259.790     239.894      39.464
  N      261.073     240.089      39.833
  C      261.898     239.943      38.793
  C      261.560     239.608      37.492
  C      260.188     239.396      37.230
  N      259.702     238.995      36.003
  N      262.690     239.517      36.689
  C      263.689     239.778      37.508
  N      263.269     240.050      38.783
  O      269.269     237.751      39.110
  O      267.682     237.116      37.236
  H      263.060     237.811      40.628
  H      267.790     236.287      37.742
  H      259.039     240.018      40.249
  H      264.738     239.770      37.233
  H      263.487     240.719      40.733
  H      265.055     238.286      39.666
  H      266.607     238.663      41.498
  H      266.704     241.419      41.067
  H      267.834     241.128      38.941
  H      258.718     238.781      35.943
  H      260.347     238.751      35.273
  H      268.380     239.880      40.082
  P      266.306     240.094      43.835
  C      265.136     237.952      44.627
  O      266.393     238.600      44.411
  O      265.908     241.137      44.832
  O      267.791     240.347      43.275
  H      268.355     240.698      43.986
  H      264.662     238.348      45.539
  H      265.306     236.867      44.739
  H      264.474     238.109      43.772
  H      269.498     239.651      34.920
  H      267.833     239.488      35.427
  H      268.806     238.063      35.150

 3  4  5  6  7  8  9  10  11  12  22  25  29  30  31  32 0
 6-311+G(2d,p)
 ****
 33  36  37 0
 6-311+G(2d,p)
 ****
 1  2  13  14  15  16  17  18  19  20  21  23  24  26 0
 3-21G
 ****
 27  28  34  35  38  39  40  41  42  43  44  45  46  47  48 0
 3-21G
 ****


