%nproc=1
%NoSave
%Mem=1900MB
#P OB98/GEN NMR

erre ene a

0 1
  C     -260.459     455.488     -84.990
  O     -261.227     455.660     -83.796
  P     -262.645     456.400     -83.950
  C     -262.063     458.319     -82.296
  O     -262.436     457.954     -83.620
  C     -261.666     459.792     -82.247
  O     -260.436     460.038     -82.974
  C     -262.696     460.716     -82.879
  O     -263.818     460.884     -82.028
  C     -261.863     461.980     -83.084
  O     -261.740     462.714     -81.851
  C     -260.494     461.398     -83.480
  N     -259.346     464.280     -87.544
  C     -259.503     464.588     -86.237
  N     -259.811     463.759     -85.215
  C     -259.950     462.495     -85.649
  C     -259.811     462.032     -86.950
  C     -259.498     462.990     -87.929
  N     -259.348     462.687     -89.267
  N     -260.022     460.675     -87.006
  C     -260.310     460.325     -85.772
  N     -260.263     461.384     -84.910
  O     -263.484     455.853     -82.705
  O     -263.328     456.113     -85.247
  H     -261.022     463.366     -81.970
  H     -264.179     455.238     -83.012
  H     -259.372     465.632     -85.974
  H     -260.557     459.315     -85.449
  H     -259.662     461.945     -83.019
  H     -262.288     462.660     -83.825
  H     -263.022     460.321     -83.848
  H     -261.507     460.066     -81.199
  H     -261.229     457.695     -81.956
  H     -259.207     463.443     -89.909
  H     -259.547     461.743     -89.575
  H     -262.900     458.109     -81.624
  P     -265.205     460.214     -82.483
  C     -266.478     462.379     -83.014
  O     -265.804     461.257     -83.553
  O     -266.117     460.462     -81.195
  O     -265.098     458.801     -82.944
  H     -266.033     461.380     -80.864
  H     -266.801     463.018     -83.845
  H     -265.813     462.953     -82.359
  H     -267.360     462.052     -82.458
  H     -259.543     454.986     -84.756
  H     -260.242     456.445     -85.416
  H     -261.017     454.904     -85.692

 3  4  5  6  7  8  9  10  11  12  22  25  29  30  31  32 0
 6-311+G(2d,p)
 ****
 33  36  37 0
 6-311+G(2d,p)
 ****
 1  2  13  14  15  16  17  18  19  20  21  23  24  26 0
 3-21G
 ****
 27  28  34  35  38  39  40  41  42  43  44  45  46  47  48 0
 3-21G
 ****


