%nproc=1
%NoSave
%Mem=1900MB
#P OB98/GEN NMR

erre ene a

0 1
  C      222.864    -243.466     208.580
  O      223.842    -244.042     209.424
  H      223.264    -242.538     208.163
  H      221.965    -243.234     209.158
  H      222.617    -244.146     207.761
  P      223.524    -245.508     210.001
  C      225.908    -246.610     209.963
  O      224.875    -245.995     210.713
  C      227.277    -246.286     210.562
  O      227.565    -244.884     210.330
  C      227.364    -246.539     212.069
  O      228.680    -247.007     212.373
  C      227.172    -245.154     212.667
  O      227.720    -245.056     213.978
  C      227.851    -244.273     211.607
  N      227.391    -242.887     211.657
  C      228.229    -241.970     212.297
  O      229.292    -242.344     212.796
  N      227.831    -240.663     212.395
  C      226.665    -240.309     211.951
  N      226.317    -239.004     212.101
  C      225.728    -241.253     211.309
  C      226.155    -242.509     211.188
  O      223.464    -246.381     208.660
  O      222.295    -245.586     210.843
  H      227.158    -245.578     214.592
  H      224.184    -246.184     208.039
  H      224.762    -240.913     210.965
  H      225.535    -243.265     210.721
  H      228.941    -244.280     211.743
  H      226.105    -244.918     212.731
  H      226.622    -247.259     212.421
  H      228.039    -246.859     210.022
  H      226.979    -238.397     212.567
  H      225.877    -246.268     208.923
  H      225.415    -238.631     211.844
  H      225.735    -247.690     209.971
  P      228.893    -248.534     212.802
  C      231.015    -249.159     211.462
  O      230.455    -248.887     212.741
  O      227.990    -249.523     212.145
  O      228.615    -248.496     214.385
  H      228.101    -249.294     214.616
  H      232.057    -249.378     211.568
  H      230.892    -248.304     210.830
  H      230.517    -250.000     211.026

 6  7  8  9  10  11  12  13  14  15  16  26  30  31  32  33  35 0
 6-311+G(2d,p)
 ****
 37  38 0
 6-311+G(2d,p)
 ****
 1  2  3  4  5  17  18  19  20  21  22  23  24  25 0
 3-21G
 ****
 27  28  29  34  36  39  40  41  42  43  44  45  46 0
 3-21G
 ****


