%nproc=1
%NoSave
%Mem=1900MB
#P OB98/GEN NMR

erre ene a

0 1
  C     -134.953    -115.199     108.801
  O     -135.075    -116.506     108.243
  P     -136.517    -117.017     107.760
  C     -137.673    -117.769     109.929
  O     -137.579    -116.755     108.935
  C     -139.119    -117.991     110.403
  O     -139.621    -116.816     111.097
  C     -140.112    -118.316     109.278
  O     -141.059    -119.249     109.813
  C     -140.762    -116.972     109.024
  O     -141.995    -117.089     108.327
  C     -140.856    -116.434     110.454
  N     -141.063    -114.997     110.500
  C     -142.351    -114.547     110.791
  O     -143.277    -115.350     110.898
  N     -142.562    -113.192     110.924
  C     -141.600    -112.365     110.639
  N     -141.844    -111.036     110.803
  C     -140.278    -112.803     110.153
  C     -140.076    -114.116     110.133
  O     -136.549    -118.389     107.175
  O     -136.932    -115.920     106.662
  H     -142.402    -116.199     108.252
  H     -137.449    -116.355     105.955
  H     -139.539    -112.076     109.851
  H     -139.135    -114.537     109.796
  H     -141.671    -116.923     111.003
  H     -140.093    -116.345     108.422
  H     -139.638    -118.755     108.392
  H     -139.108    -118.815     111.131
  H     -142.760    -110.751     111.114
  H     -137.054    -117.490     110.784
  H     -141.131    -110.332     110.651
  H     -137.242    -118.699     109.531
  P     -140.655    -120.802     109.903
  C     -141.578    -121.592     107.603
  O     -140.444    -121.345     108.411
  O     -142.059    -121.478     110.306
  O     -139.612    -121.150     110.912
  H     -141.879    -122.321     110.766
  H     -141.252    -121.675     106.561
  H     -142.301    -120.775     107.673
  H     -142.048    -122.533     107.904
  H     -133.933    -115.019     109.068
  H     -135.569    -115.125     109.673
  H     -135.266    -114.473     108.080

 3  4  5  6  7  8  9  10  11  12  13  23  27  28  29  30  32 0
 6-311+G(2d,p)
 ****
 34  35 0
 6-311+G(2d,p)
 ****
 1  2  14  15  16  17  18  19  20  21  22  24  25  26 0
 3-21G
 ****
 31  33  36  37  38  39  40  41  42  43  44  45  46 0
 3-21G
 ****


