%nproc=1
%NoSave
%Mem=1900MB
#P OB98/GEN NMR

erre ene a

0 1
  C      117.052     413.201     186.178
  O      115.675     413.610     186.108
  P      115.006     414.105     184.733
  C      115.241     416.070     183.078
  O      115.617     415.543     184.348
  C      116.054     417.324     182.721
  O      115.831     418.375     183.680
  C      117.567     417.105     182.686
  O      117.951     416.466     181.476
  C      118.076     418.532     182.851
  O      118.040     419.226     181.595
  C      117.049     419.123     183.822
  N      120.505     420.942     187.133
  C      120.298     421.186     185.817
  N      119.360     420.655     185.000
  C      118.562     419.810     185.684
  C      118.660     419.465     187.025
  C      119.689     420.068     187.767
  N      119.908     419.809     189.100
  N      117.683     418.550     187.359
  C      117.000     418.358     186.248
  N      117.495     419.099     185.210
  O      113.511     414.059     184.728
  O      115.611     413.134     183.614
  H      118.881     419.050     181.137
  H      114.977     413.050     182.873
  H      120.983     421.895     185.358
  H      116.138     417.700     186.144
  H      116.809     420.167     183.574
  H      119.109     418.569     183.217
  H      117.881     416.501     183.549
  H      115.703     417.680     181.746
  H      114.173     416.322     183.114
  H      120.689     420.262     189.550
  H      119.330     419.126     189.566
  H      115.394     415.294     182.321
  P      118.782     415.095     181.524
  C      120.973     414.391     182.649
  O      120.255     415.452     182.047
  O      118.731     414.272     180.280
  O      118.148     414.302     182.764
  H      118.220     413.347     182.612
  H      120.644     414.258     183.684
  H      122.041     414.654     182.651
  H      120.845     413.461     182.092
  H      117.288     412.912     187.181
  H      117.681     414.015     185.884
  H      117.212     412.372     185.521

 3  4  5  6  7  8  9  10  11  12  22  25  29  30  31  32 0
 6-311+G(2d,p)
 ****
 33  36  37 0
 6-311+G(2d,p)
 ****
 1  2  13  14  15  16  17  18  19  20  21  23  24  26 0
 3-21G
 ****
 27  28  34  35  38  39  40  41  42  43  44  45  46  47  48 0
 3-21G
 ****


