%nproc=1
%NoSave
%Mem=1900MB
#P OB98/GEN NMR

erre ene a

0 1
  C     -535.774     342.330     -19.060
  O     -534.664     342.660     -18.218
  P     -535.005     343.470     -16.871
  C     -532.868     344.886     -16.438
  O     -533.624     343.732     -16.094
  C     -531.519     344.862     -15.708
  O     -531.682     344.898     -14.272
  C     -530.698     343.611     -15.996
  O     -530.116     343.666     -17.282
  C     -529.697     343.663     -14.848
  O     -528.641     344.600     -15.135
  C     -530.553     344.204     -13.689
  N     -530.844     342.661      -8.818
  C     -530.293     343.750      -9.385
  N     -530.248     344.091     -10.696
  C     -530.886     343.169     -11.438
  C     -531.502     342.002     -11.004
  C     -531.462     341.763      -9.615
  N     -532.020     340.641      -9.036
  N     -532.043     341.307     -12.062
  C     -531.734     342.021     -13.131
  N     -531.046     343.156     -12.801
  O     -535.757     342.384     -15.968
  O     -535.848     344.683     -17.097
  H     -527.920     344.425     -14.496
  H     -536.706     342.600     -15.906
  H     -529.802     344.450      -8.706
  H     -531.988     341.758     -14.148
  H     -530.012     344.925     -13.069
  H     -529.225     342.697     -14.643
  H     -531.325     342.716     -15.907
  H     -530.957     345.760     -16.014
  H     -533.410     345.798     -16.166
  H     -531.881     340.496      -8.044
  H     -532.402     339.917      -9.631
  H     -532.729     344.909     -17.525
  P     -530.332     342.394     -18.247
  C     -528.179     342.792     -19.602
  O     -529.590     342.838     -19.612
  O     -531.872     342.528     -18.621
  O     -529.892     341.085     -17.676
  H     -532.113     343.444     -18.859
  H     -527.816     343.084     -20.596
  H     -527.828     341.781     -19.377
  H     -527.787     343.498     -18.866
  H     -535.424     341.796     -19.919
  H     -536.263     343.228     -19.374
  H     -536.464     341.719     -18.517

 3  4  5  6  7  8  9  10  11  12  22  25  29  30  31  32 0
 6-311+G(2d,p)
 ****
 33  36  37 0
 6-311+G(2d,p)
 ****
 1  2  13  14  15  16  17  18  19  20  21  23  24  26 0
 3-21G
 ****
 27  28  34  35  38  39  40  41  42  43  44  45  46  47  48 0
 3-21G
 ****


