%nproc=1
%NoSave
%Mem=1900MB
#P OB98/GEN NMR

erre ene a

0 1
  C      -66.716      26.549     -55.929
  O      -65.931      25.415     -56.240
  H      -66.406      27.378     -56.570
  H      -66.568      26.839     -54.884
  H      -67.773      26.337     -56.107
  P      -66.166      24.115     -55.325
  C      -68.265      22.605     -54.980
  O      -67.736      23.818     -55.492
  C      -69.721      22.809     -54.573
  O      -69.809      23.658     -53.409
  C      -70.575      23.488     -55.637
  O      -70.980      22.604     -56.669
  C      -71.749      23.947     -54.793
  O      -72.599      22.823     -54.497
  C      -71.025      24.446     -53.521
  N      -70.710      25.874     -53.562
  C      -71.768      26.758     -53.315
  O      -72.899      26.333     -53.089
  N      -71.525      28.110     -53.364
  C      -70.331      28.544     -53.625
  N      -70.151      29.891     -53.675
  C      -69.186      27.649     -53.874
  C      -69.443      26.344     -53.828
  O      -66.076      24.684     -53.831
  O      -65.272      22.953     -55.596
  H      -72.028      22.127     -54.125
  H      -66.332      23.979     -53.189
  H      -68.212      28.057     -54.098
  H      -68.650      25.626     -54.004
  H      -71.625      24.246     -52.625
  H      -72.367      24.697     -55.289
  H      -70.077      24.371     -56.052
  H      -70.134      21.830     -54.296
  H      -70.966      30.478     -53.562
  H      -67.668      22.306     -54.113
  H      -69.310      30.315     -54.045
  H      -68.208      21.820     -55.741
  P      -71.320      23.239     -58.104
  C      -69.859      23.994     -60.114
  O      -69.942      23.794     -58.710
  O      -72.118      24.573     -57.727
  O      -72.109      22.352     -59.016
  H      -72.853      24.732     -58.350
  H      -68.887      24.364     -60.365
  H      -70.600      24.704     -60.418
  H      -70.028      23.065     -60.617

 6  7  8  9  10  11  12  13  14  15  16  26  30  31  32  33  35 0
 6-311+G(2d,p)
 ****
 37  38 0
 6-311+G(2d,p)
 ****
 1  2  3  4  5  17  18  19  20  21  22  23  24  25 0
 3-21G
 ****
 27  28  29  34  36  39  40  41  42  43  44  45  46 0
 3-21G
 ****


