%nproc=1
%NoSave
%Mem=1900MB
#P OB98/GEN NMR

erre ene a

0 1
  C     -142.318      92.122     464.061
  O     -142.240      90.686     464.022
  P     -140.864      89.905     463.779
  C     -139.529      88.936     461.787
  O     -140.569      89.815     462.201
  C     -139.659      88.568     460.300
  O     -140.885      87.853     460.057
  C     -139.686      89.760     459.349
  O     -138.393      90.314     459.178
  C     -140.286      89.122     458.099
  O     -139.273      88.434     457.334
  C     -141.289      88.124     458.699
  N     -142.668      88.602     458.638
  C     -143.272      88.598     457.380
  O     -142.644      88.252     456.383
  N     -144.586      89.009     457.279
  C     -145.201      89.443     458.326
  N     -146.507      89.827     458.174
  C     -144.572      89.557     459.663
  C     -143.306      89.119     459.741
  O     -140.784      88.580     464.483
  O     -139.718      90.886     464.315
  H     -138.687      89.131     456.969
  H     -138.970      90.353     464.655
  H     -145.116      89.951     460.504
  H     -142.777      89.144     460.684
  H     -141.234      87.147     458.172
  H     -140.750      89.853     457.435
  H     -140.381      90.522     459.734
  H     -138.818      87.902     460.046
  H     -146.912      89.734     457.257
  H     -139.592      88.019     462.387
  H     -147.077      90.185     458.925
  H     -138.565      89.411     461.977
  P     -138.043      91.737     459.824
  C     -139.067      94.098     459.850
  O     -139.163      92.780     459.338
  O     -136.625      92.200     459.654
  O     -138.403      91.553     461.380
  H     -137.799      92.109     461.920
  H     -139.603      94.775     459.174
  H     -138.024      94.423     459.935
  H     -139.545      94.132     460.840
  H     -143.331      92.420     464.235
  H     -141.984      92.523     463.127
  H     -141.697      92.492     464.850

 3  4  5  6  7  8  9  10  11  12  13  23  27  28  29  30  32 0
 6-311+G(2d,p)
 ****
 34  35 0
 6-311+G(2d,p)
 ****
 1  2  14  15  16  17  18  19  20  21  22  24  25  26 0
 3-21G
 ****
 31  33  36  37  38  39  40  41  42  43  44  45  46 0
 3-21G
 ****


