%nproc=1
%NoSave
%Mem=1900MB
#P OB98/GEN NMR

erre ene a

0 1
  C       41.992     174.936    -155.661
  O       42.515     174.836    -154.355
  H       42.432     175.808    -156.152
  H       40.908     175.069    -155.621
  H       42.236     174.043    -156.244
  P       42.127     173.535    -153.501
  C       44.366     173.569    -152.184
  O       42.948     173.629    -152.122
  C       44.983     174.502    -151.143
  O       44.748     175.875    -151.550
  C       44.407     174.322    -149.736
  O       45.465     174.471    -148.786
  C       43.436     175.480    -149.595
  O       43.214     175.849    -148.235
  C       44.111     176.558    -150.452
  N       43.149     177.553    -150.917
  C       43.169     178.795    -150.278
  O       43.968     179.007    -149.362
  N       42.254     179.746    -150.644
  C       41.339     179.454    -151.515
  N       40.440     180.430    -151.817
  C       41.234     178.134    -152.168
  C       42.167     177.242    -151.830
  O       42.860     172.348    -154.281
  O       40.666     173.291    -153.335
  H       42.914     175.054    -147.744
  H       42.357     171.514    -154.211
  H       40.439     177.930    -152.867
  H       42.167     176.246    -152.252
  H       44.896     177.070    -149.880
  H       42.468     175.201    -150.030
  H       43.919     173.355    -149.590
  H       46.069     174.352    -151.142
  H       40.534     181.317    -151.334
  H       44.692     173.882    -153.181
  H       39.660     180.301    -152.443
  H       44.692     172.538    -152.014
  P       46.090     173.122    -148.186
  C       48.406     174.159    -147.628
  O       47.233     173.522    -147.137
  O       46.902     172.511    -149.421
  O       45.066     172.165    -147.672
  H       46.446     171.722    -149.764
  H       49.070     174.361    -146.813
  H       48.139     175.078    -148.107
  H       48.892     173.517    -148.333

 6  7  8  9  10  11  12  13  14  15  16  26  30  31  32  33  35 0
 6-311+G(2d,p)
 ****
 37  38 0
 6-311+G(2d,p)
 ****
 1  2  3  4  5  17  18  19  20  21  22  23  24  25 0
 3-21G
 ****
 27  28  29  34  36  39  40  41  42  43  44  45  46 0
 3-21G
 ****


