%nproc=1
%NoSave
%Mem=1900MB
#P OB98/GEN NMR

erre ene a

0 1
  C     -115.740     191.301      72.594
  O     -114.684     190.873      71.748
  P     -113.396     190.204      72.436
  C     -111.626     191.960      71.678
  O     -112.368     191.397      72.747
  C     -110.142     192.047      72.043
  O     -109.390     192.394      70.849
  C     -109.802     193.090      73.113
  O     -108.686     192.583      73.856
  C     -109.364     194.292      72.295
  O     -108.558     195.201      73.039
  C     -108.645     193.599      71.140
  N     -105.660     195.410      67.480
  C     -105.338     194.651      68.590
  N     -104.045     194.273      68.702
  N     -106.203     194.293      69.503
  C     -107.459     194.730      69.247
  C     -107.895     195.519      68.206
  C     -106.937     195.876      67.184
  O     -107.194     196.474      66.143
  N     -109.222     195.831      68.333
  C     -109.607     195.164      69.404
  N     -108.586     194.445      69.965
  O     -112.711     189.420      71.221
  O     -113.674     189.315      73.609
  H     -107.828     194.688      73.446
  H     -113.002     188.489      71.195
  H     -104.955     195.640      66.800
  H     -110.603     195.161      69.814
  H     -107.618     193.312      71.396
  H     -110.249     194.836      71.938
  H     -103.333     194.488      68.022
  H     -110.636     193.316      73.785
  H     -103.790     193.690      69.488
  H     -109.804     191.051      72.360
  H     -111.993     192.970      71.483
  H     -111.768     191.358      70.775
  P     -108.600     192.939      75.418
  C     -107.044     194.971      75.017
  O     -108.269     194.498      75.542
  O     -107.231     192.235      75.868
  O     -109.744     192.442      76.237
  H     -107.303     191.940      76.794
  H     -107.134     196.040      74.813
  H     -106.777     194.456      74.085
  H     -106.247     194.817      75.752
  H     -116.524     191.723      72.000
  H     -115.373     192.038      73.277
  H     -116.119     190.464      73.142

 3  4  5  6  7  8  9  10  11  12  23  26  30  31 0
 6-311+G(2d,p)
 ****
 33  35  36  37  38 0
 6-311+G(2d,p)
 ****
 1  2  13  14  15  16  17  18  19  20  21  22  24  25 0
 3-21G
 ****
 27  28  29  32  34  39  40  41  42  43  44  45  46  47  48  49 0
 3-21G
 ****


