%nproc=1
%NoSave
%Mem=1900MB
#P OB98/GEN NMR

erre ene a

0 1
  C      513.294     -34.070      61.150
  O      513.797     -33.996      59.826
  P      514.181     -35.380      59.106
  C      516.744     -34.963      59.306
  O      515.633     -35.781      59.661
  C      518.024     -35.513      59.925
  O      517.874     -35.635      61.349
  C      518.402     -36.906      59.435
  O      518.983     -36.835      58.147
  C      519.366     -37.360      60.529
  O      520.707     -36.911      60.256
  C      518.797     -36.661      61.787
  N      518.157     -37.597      62.706
  C      519.021     -38.476      63.373
  O      520.233     -38.442      63.150
  N      518.476     -39.396      64.238
  C      517.195     -39.434      64.413
  N      516.711     -40.363      65.288
  C      516.249     -38.536      63.715
  C      516.792     -37.658      62.876
  O      514.474     -34.938      57.596
  O      513.131     -36.443      59.195
  H      521.252     -37.257      60.995
  H      514.310     -35.670      56.977
  H      515.192     -38.617      63.901
  H      516.176     -36.962      62.319
  H      519.599     -36.144      62.330
  H      519.401     -38.448      60.610
  H      517.522     -37.558      59.420
  H      518.839     -34.798      59.726
  H      517.384     -40.970      65.747
  H      516.576     -33.950      59.679
  H      515.731     -40.458      65.511
  H      516.825     -34.930      58.219
  P      518.857     -38.126      57.204
  C      521.308     -38.867      57.382
  O      519.967     -39.142      57.746
  O      519.518     -37.604      55.831
  O      517.488     -38.676      56.992
  H      519.408     -38.278      55.138
  H      521.964     -39.539      57.941
  H      521.564     -37.830      57.634
  H      521.446     -39.046      56.314
  H      513.081     -33.084      61.506
  H      514.024     -34.528      61.784
  H      512.398     -34.654      61.159

 3  4  5  6  7  8  9  10  11  12  13  21  23  27  28  29  30  32 0
 6-311+G(2d,p)
 ****
 34  35 0
 6-311+G(2d,p)
 ****
 1  2  14  15  16  17  18  19  20  22  24  25  26 0
 3-21G
 ****
 31  33  36  37  38  39  40  41  42  43  44  45  46 0
 3-21G
 ****


