%nproc=1
%NoSave
%Mem=1900MB
#P OB98/GEN NMR

erre ene a

0 1
  C      160.791    -156.171      76.408
  O      161.687    -156.539      77.461
  P      163.231    -156.713      77.047
  C      163.695    -154.428      78.178
  O      164.108    -155.775      78.014
  C      164.746    -153.605      78.933
  O      164.818    -154.010      80.336
  C      166.163    -153.737      78.359
  O      166.803    -152.467      78.534
  C      166.809    -154.752      79.285
  O      168.233    -154.702      79.204
  C      166.206    -154.306      80.619
  N      168.357    -155.364      85.062
  C      168.546    -154.291      84.219
  N      169.394    -153.330      84.641
  N      167.952    -154.167      83.061
  C      167.099    -155.184      82.780
  C      166.817    -156.297      83.543
  C      167.505    -156.437      84.810
  O      167.371    -157.365      85.598
  N      165.868    -157.092      82.941
  C      165.640    -156.487      81.785
  N      166.315    -155.302      81.668
  O      163.310    -155.979      75.627
  O      163.673    -158.136      76.963
  H      168.588    -155.261      79.929
  H      163.295    -156.636      74.907
  H      168.856    -155.419      85.937
  H      164.979    -156.852      81.014
  H      166.681    -153.397      81.009
  H      166.482    -155.765      79.026
  H      169.848    -153.338      85.548
  H      166.198    -154.038      77.308
  H      169.520    -152.509      84.060
  H      164.437    -152.551      78.916
  H      162.751    -154.391      78.731
  H      163.486    -153.992      77.196
  P      166.380    -151.270      77.554
  C      165.543    -149.877      79.571
  O      166.372    -149.924      78.426
  O      164.821    -151.555      77.292
  O      167.140    -151.213      76.269
  H      164.608    -151.351      76.360
  H      165.966    -149.158      80.282
  H      165.470    -150.853      80.062
  H      164.542    -149.542      79.289
  H      159.798    -156.085      76.798
  H      160.810    -156.921      75.645
  H      161.094    -155.232      75.993

 3  4  5  6  7  8  9  10  11  12  23  26  30  31 0
 6-311+G(2d,p)
 ****
 33  35  36  37  38 0
 6-311+G(2d,p)
 ****
 1  2  13  14  15  16  17  18  19  20  21  22  24  25 0
 3-21G
 ****
 27  28  29  32  34  39  40  41  42  43  44  45  46  47  48  49 0
 3-21G
 ****


