%nproc=1
%NoSave
%Mem=1900MB
#P OB98/GEN NMR

erre ene a

0 1
  C     -233.263     -55.692     333.029
  O     -233.093     -54.430     333.643
  P     -233.032     -54.320     335.237
  C     -235.285     -53.150     335.642
  O     -234.538     -54.352     335.786
  C     -235.668     -52.590     337.008
  O     -236.577     -53.485     337.682
  C     -234.486     -52.417     337.958
  O     -233.730     -51.268     337.618
  C     -235.201     -52.338     339.301
  O     -235.701     -51.011     339.533
  C     -236.360     -53.325     339.104
  N     -236.176     -55.861     343.525
  C     -236.295     -54.547     343.245
  N     -236.298     -53.942     342.037
  C     -236.134     -54.846     341.060
  C     -235.961     -56.217     341.190
  C     -236.010     -56.731     342.498
  N     -235.951     -58.079     342.790
  N     -235.787     -56.801     339.952
  C     -235.844     -55.806     339.091
  N     -236.115     -54.617     339.708
  O     -232.189     -53.209     335.772
  O     -232.453     -55.740     335.697
  H     -234.957     -50.394     339.401
  H     -231.611     -55.607     336.174
  H     -236.417     -53.894     344.104
  H     -235.712     -55.896     338.022
  H     -237.298     -52.940     339.523
  H     -234.544     -52.585     340.143
  H     -233.858     -53.312     337.938
  H     -236.184     -51.633     336.855
  H     -236.192     -53.376     335.069
  H     -236.143     -58.343     343.742
  H     -236.135     -58.742     342.042
  H     -234.689     -52.417     335.084
  P     -232.266     -51.072     338.231
  C     -232.497     -49.352     340.117
  O     -232.454     -50.726     339.785
  O     -231.366     -50.153     337.475
  O     -231.670     -52.562     338.272
  H     -230.706     -52.529     338.136
  H     -231.483     -48.940     340.115
  H     -232.920     -49.245     341.121
  H     -233.119     -48.796     339.408
  H     -233.280     -55.572     331.966
  H     -234.186     -56.125     333.354
  H     -232.452     -56.334     333.302

 3  4  5  6  7  8  9  10  11  12  22  25  29  30  31  32 0
 6-311+G(2d,p)
 ****
 33  36  37 0
 6-311+G(2d,p)
 ****
 1  2  13  14  15  16  17  18  19  20  21  23  24  26 0
 3-21G
 ****
 27  28  34  35  38  39  40  41  42  43  44  45  46  47  48 0
 3-21G
 ****


