%nproc=1
%NoSave
%Mem=1900MB
#P OB98/GEN NMR

erre ene a

0 1
  C     -255.172    -477.593      86.599
  O     -255.829    -478.656      87.282
  P     -256.720    -478.306      88.568
  C     -258.956    -479.633      88.083
  O     -258.269    -478.408      88.197
  C     -259.331    -479.871      86.614
  O     -258.146    -479.886      85.790
  C     -260.056    -481.193      86.379
  O     -261.453    -481.077      86.580
  C     -259.672    -481.513      84.950
  O     -260.459    -480.729      84.033
  C     -258.196    -481.058      84.921
  N     -257.161    -482.017      85.366
  C     -256.558    -482.863      84.438
  O     -256.824    -482.878      83.240
  N     -255.600    -483.709      84.931
  C     -255.070    -483.683      86.186
  O     -254.167    -484.425      86.555
  C     -255.635    -482.673      87.087
  C     -256.644    -481.913      86.648
  O     -256.478    -476.741      88.782
  O     -256.373    -479.098      89.790
  H     -261.385    -481.008      84.141
  H     -256.022    -476.580      89.628
  H     -255.203    -484.375      84.291
  H     -255.212    -482.583      88.078
  H     -257.070    -481.161      87.310
  H     -257.911    -480.730      83.914
  H     -259.880    -482.554      84.708
  H     -259.633    -481.972      87.023
  H     -259.963    -479.038      86.278
  H     -259.854    -479.634      88.703
  H     -258.321    -480.449      88.449
  P     -262.096    -481.509      87.982
  C     -263.294    -479.265      88.316
  O     -262.297    -480.145      88.802
  O     -261.402    -482.604      88.714
  O     -263.602    -481.904      87.597
  H     -263.685    -482.875      87.462
  H     -263.439    -478.461      89.046
  H     -264.241    -479.798      88.180
  H     -262.975    -478.829      87.369
  H     -254.622    -477.987      85.770
  H     -254.500    -477.099      87.270
  H     -255.900    -476.893      86.244

 3  4  5  6  7  8  9  10  11  12  13  23  28  29  30  31  32 0
 6-311+G(2d,p)
 ****
 33  34 0
 6-311+G(2d,p)
 ****
 1  2  14  15  16  17  18  19  20  21  22  24  25  26  27 0
 3-21G
 ****
 35  36  37  38  39  40  41  42  43  44  45 0
 3-21G
 ****


