%nproc=1
%NoSave
%Mem=1900MB
#P OB98/GEN NMR

erre ene a

0 1
  C      287.773     384.675    -327.751
  O      288.072     385.346    -326.545
  H      286.694     384.677    -327.926
  H      288.262     385.200    -328.577
  H      288.144     383.648    -327.716
  P      287.454     384.729    -325.199
  C      289.503     383.131    -325.180
  O      288.093     383.263    -325.058
  C      290.117     382.911    -323.803
  O      289.445     381.825    -323.126
  C      291.593     382.530    -323.826
  O      292.435     383.660    -323.981
  C      291.744     381.915    -322.448
  O      291.819     382.956    -321.455
  C      290.429     381.138    -322.306
  N      291.612     376.371    -320.868
  C      291.642     377.546    -320.206
  N      291.315     378.773    -320.660
  C      290.925     378.715    -321.944
  C      290.852     377.591    -322.751
  C      291.211     376.369    -322.160
  N      291.196     375.170    -322.837
  N      290.440     377.932    -324.025
  C      290.237     379.234    -323.974
  N      290.526     379.754    -322.741
  O      285.931     384.425    -325.590
  O      287.572     385.580    -323.981
  H      292.015     382.517    -320.606
  H      285.387     384.355    -324.784
  H      291.973     377.494    -319.171
  H      289.885     379.840    -324.797
  H      290.053     381.130    -321.276
  H      292.647     381.309    -322.345
  H      291.801     381.765    -324.586
  H      289.959     383.821    -323.210
  H      289.913     384.046    -325.617
  H      291.648     374.390    -322.384
  H      291.046     375.184    -323.836
  H      289.730     382.286    -325.839
  P      293.110     383.885    -325.421
  C      292.090     386.272    -325.569
  O      292.205     384.981    -326.161
  O      292.766     382.530    -326.199
  O      294.576     384.166    -325.386
  H      293.429     382.352    -326.893
  H      291.458     386.887    -326.175
  H      293.060     386.719    -325.497
  H      291.666     386.179    -324.591

 6  7  8  9  10  11  12  13  14  15  25  28  32  33  34  35 0
 6-311+G(2d,p)
 ****
 36  39  40 0
 6-311+G(2d,p)
 ****
 1  2  3  4  5  16  17  18  19  20  21  22  23  24 0
 3-21G
 ****
 26  27  29  30  31  37  38  41  42  43  44  45  46  47 0
 3-21G
 ****
 48 0
 3-21G
 ****


