%nproc=1
%NoSave
%Mem=1900MB
#P OB98/GEN NMR

erre ene a

0 1
  C      222.143    -152.480    -239.223
  O      221.380    -152.641    -238.045
  H      222.906    -151.719    -239.043
  H      221.509    -152.154    -240.053
  H      222.641    -153.418    -239.483
  P      220.115    -153.625    -238.082
  C      219.740    -156.103    -238.722
  O      220.683    -155.088    -238.411
  C      220.418    -157.274    -239.442
  O      221.139    -156.765    -240.599
  C      221.434    -158.035    -238.574
  O      221.452    -159.393    -239.021
  C      222.727    -157.332    -238.942
  O      223.851    -158.065    -238.520
  C      222.522    -157.152    -240.449
  N      223.429    -156.171    -241.023
  C      224.785    -156.513    -241.036
  O      225.156    -157.591    -240.570
  N      225.686    -155.617    -241.550
  C      225.282    -154.454    -241.953
  N      226.230    -153.607    -242.438
  C      223.868    -154.028    -241.901
  C      223.001    -154.930    -241.435
  O      218.977    -153.187    -238.946
  O      219.672    -153.744    -236.549
  H      224.683    -157.595    -238.750
  H      218.866    -153.217    -236.398
  H      223.584    -153.039    -242.229
  H      221.942    -154.707    -241.357
  H      222.655    -158.104    -240.979
  H      222.789    -156.355    -238.450
  H      221.200    -157.991    -237.507
  H      219.640    -157.950    -239.825
  H      227.188    -153.937    -242.445
  H      218.979    -155.658    -239.370
  H      226.035    -152.670    -242.759
  H      219.256    -156.463    -237.809
  P      220.522    -160.533    -238.382
  C      218.186    -161.513    -238.878
  O      219.361    -160.918    -239.418
  O      220.029    -160.213    -237.006
  O      221.442    -161.848    -238.350
  H      221.182    -162.401    -237.590
  H      217.495    -161.720    -239.669
  H      217.736    -160.841    -238.177
  H      218.444    -162.425    -238.382

 6  7  8  9  10  11  12  13  14  15  16  26  30  31  32  33  35 0
 6-311+G(2d,p)
 ****
 37  38 0
 6-311+G(2d,p)
 ****
 1  2  3  4  5  17  18  19  20  21  22  23  24  25 0
 3-21G
 ****
 27  28  29  34  36  39  40  41  42  43  44  45  46 0
 3-21G
 ****


