%nproc=1
%NoSave
%Mem=1900MB
#P OB98/GEN NMR

erre ene a

0 1
  C       50.283    -419.596     161.653
  O       49.409    -419.697     162.761
  H       50.474    -420.599     161.265
  H       51.232    -419.152     161.969
  H       49.831    -418.988     160.864
  P       48.856    -418.318     163.373
  C       46.490    -419.355     163.852
  O       47.658    -418.730     164.356
  C       46.154    -420.606     164.666
  O       47.166    -421.610     164.411
  C       46.105    -420.362     166.177
  O       45.081    -421.190     166.733
  C       47.462    -420.852     166.654
  O       47.450    -421.206     168.033
  C       47.718    -422.016     165.683
  N       49.139    -422.347     165.574
  C       49.659    -423.206     166.545
  O       48.935    -423.636     167.447
  N       50.991    -423.526     166.504
  C       51.756    -422.987     165.609
  N       53.073    -423.324     165.636
  C       51.260    -422.040     164.589
  C       49.953    -421.776     164.624
  O       48.108    -417.676     162.112
  O       49.905    -417.447     163.976
  H       48.281    -421.688     168.239
  H       47.561    -418.313     161.621
  H       51.939    -421.606     163.871
  H       49.504    -421.099     163.910
  H       47.179    -422.916     166.008
  H       48.213    -420.069     166.515
  H       45.917    -419.316     166.432
  H       45.205    -421.014     164.302
  H       53.374    -423.957     166.364
  H       46.630    -419.631     162.802
  H       53.768    -422.924     165.024
  H       45.669    -418.633     163.908
  P       43.551    -420.900     166.369
  C       42.791    -423.209     165.483
  O       42.702    -422.252     166.530
  O       43.316    -420.150     165.103
  O       43.048    -420.034     167.626
  H       42.475    -419.318     167.286
  H       42.179    -424.054     165.720
  H       43.808    -423.524     165.373
  H       42.453    -422.769     164.568

 6  7  8  9  10  11  12  13  14  15  16  26  30  31  32  33  35 0
 6-311+G(2d,p)
 ****
 37  38 0
 6-311+G(2d,p)
 ****
 1  2  3  4  5  17  18  19  20  21  22  23  24  25 0
 3-21G
 ****
 27  28  29  34  36  39  40  41  42  43  44  45  46 0
 3-21G
 ****


