%nproc=1
%NoSave
%Mem=1900MB
#P OB98/GEN NMR

erre ene a

0 1
  C       24.690     449.512      82.951
  O       24.720     450.077      81.660
  H       25.341     450.096      83.604
  H       25.064     448.486      82.910
  H       23.679     449.517      83.368
  P       23.542     449.724      80.638
  C       25.216     448.243      79.345
  O       23.912     448.342      79.905
  C       25.933     446.972      79.802
  O       26.162     447.031      81.227
  C       25.112     445.707      79.538
  O       25.290     445.150      78.247
  C       25.632     444.762      80.618
  O       26.785     444.035      80.165
  C       26.012     445.709      81.763
  N       24.544     443.765      86.259
  C       25.544     443.328      85.411
  N       26.203     442.215      85.798
  N       25.844     443.923      84.287
  C       25.035     444.962      83.987
  C       23.999     445.475      84.739
  C       23.720     444.857      86.016
  O       22.856     445.214      86.808
  N       23.372     446.511      84.091
  C       23.970     446.567      82.918
  N       25.038     445.701      82.839
  O       23.735     450.798      79.461
  O       22.154     449.798      81.199
  H       27.218     443.640      80.947
  H       22.868     451.013      79.071
  H       24.377     443.284      87.123
  H       23.704     447.238      82.113
  H       26.976     445.432      82.207
  H       24.875     444.020      80.883
  H       25.956     441.670      86.607
  H       24.051     445.888      79.726
  H       26.810     441.754      85.118
  H       26.917     446.919      79.321
  H       25.765     449.123      79.679
  H       25.164     448.282      78.253
  P       24.175     445.327      77.116
  C       23.520     442.793      77.327
  O       23.115     444.144      77.263
  O       24.960     444.956      75.772
  O       23.545     446.681      77.042
  H       25.248     445.763      75.309
  H       22.658     442.166      77.424
  H       24.160     442.652      78.173
  H       24.049     442.536      76.433

 6  7  8  9  10  11  12  13  14  15  26  29  33  34 0
 6-311+G(2d,p)
 ****
 36  38  39  40  41 0
 6-311+G(2d,p)
 ****
 1  2  3  4  5  16  17  18  19  20  21  22  23  24  25 0
 3-21G
 ****
 27  28  30  31  32  35  37  42  43  44  45  46  47 0
 3-21G
 ****
 48  49 0
 3-21G
 ****


