%nproc=1
%NoSave
%Mem=1900MB
#P OB98/GEN NMR

erre ene a

0 1
  C       24.872     242.822     329.077
  O       23.523     243.168     329.405
  P       22.594     243.726     328.220
  C       22.138     242.751     325.830
  O       22.417     242.501     327.201
  C       21.402     241.561     325.218
  O       22.204     240.359     325.321
  C       20.087     241.228     325.900
  O       19.072     242.158     325.556
  C       19.849     239.809     325.394
  O       19.299     239.836     324.066
  C       21.284     239.241     325.356
  N       21.574     238.346     326.471
  C       21.434     236.987     326.203
  O       21.069     236.545     325.115
  N       21.715     236.144     327.246
  C       22.081     236.522     328.505
  O       22.328     235.719     329.397
  C       22.163     237.970     328.738
  C       21.910     238.806     327.727
  O       23.603     244.721     327.481
  O       21.333     244.351     328.713
  H       24.521     244.401     327.486
  H       18.447     240.314     324.131
  H       21.630     235.153     327.072
  H       22.425     238.309     329.735
  H       21.964     239.881     327.878
  H       21.446     238.687     324.423
  H       19.152     239.249     326.025
  H       20.220     241.214     326.991
  H       21.236     241.775     324.154
  H       23.071     242.917     325.284
  H       21.543     243.667     325.753
  P       18.678     243.248     326.673
  C       18.768     245.860     326.723
  O       19.229     244.658     326.146
  O       19.683     242.856     327.855
  O       17.235     243.219     327.054
  H       20.584     242.675     327.544
  H       19.486     246.655     326.494
  H       18.672     245.776     327.807
  H       17.800     246.126     326.288
  H       25.372     242.467     329.954
  H       25.380     243.685     328.701
  H       24.872     242.055     328.331

 3  4  5  6  7  8  9  10  11  12  13  24  28  29  30  31  32 0
 6-311+G(2d,p)
 ****
 33  34 0
 6-311+G(2d,p)
 ****
 1  2  14  15  16  17  18  19  20  21  22  23  25  26  27 0
 3-21G
 ****
 35  36  37  38  39  40  41  42  43  44  45 0
 3-21G
 ****


