%nproc=1
%NoSave
%Mem=1900MB
#P OB98/GEN NMR

erre ene a

0 1
  C       80.832    -243.515     227.988
  O       81.321    -244.769     227.495
  P       80.351    -245.854     226.820
  C       80.170    -244.975     224.412
  O       80.679    -246.010     225.250
  C       80.704    -245.049     222.972
  O       82.104    -244.657     222.913
  C       80.606    -246.436     222.316
  O       80.417    -246.199     220.919
  C       81.993    -247.009     222.579
  O       82.330    -248.094     221.726
  C       82.851    -245.760     222.370
  N       87.688    -247.376     221.822
  C       86.676    -247.242     220.933
  N       85.432    -246.767     221.144
  C       85.277    -246.375     222.421
  C       86.218    -246.439     223.443
  C       87.473    -246.987     223.103
  N       88.488    -247.171     224.016
  N       85.687    -245.974     224.632
  C       84.445    -245.636     224.336
  N       84.152    -245.857     223.010
  O       78.897    -245.645     227.119
  O       80.832    -247.257     227.437
  H       81.660    -248.797     221.845
  H       80.051    -247.771     227.716
  H       86.902    -247.559     219.916
  H       83.717    -245.257     225.035
  H       83.016    -245.564     221.301
  H       82.044    -247.368     223.616
  H       79.807    -247.055     222.718
  H       80.148    -244.309     222.377
  H       80.442    -244.003     224.852
  H       89.317    -247.649     223.703
  H       88.308    -247.001     224.999
  H       79.077    -245.040     224.398
  P       78.977    -246.345     220.226
  C       77.251    -244.478     220.544
  O       78.465    -244.857     219.915
  O       78.005    -247.202     220.972
  O       79.291    -246.939     218.770
  H       78.474    -247.343     218.400
  H       76.403    -244.941     220.027
  H       77.151    -243.390     220.499
  H       77.244    -244.783     221.596
  H       81.645    -242.950     228.394
  H       80.103    -243.692     228.752
  H       80.383    -242.967     227.186

 3  4  5  6  7  8  9  10  11  12  22  25  29  30  31  32 0
 6-311+G(2d,p)
 ****
 33  36  37 0
 6-311+G(2d,p)
 ****
 1  2  13  14  15  16  17  18  19  20  21  23  24  26 0
 3-21G
 ****
 27  28  34  35  38  39  40  41  42  43  44  45  46  47  48 0
 3-21G
 ****


