%nproc=1
%NoSave
%Mem=1900MB
#P OB98/GEN NMR

erre ene a

0 1
  C     -502.011    -447.107    -179.917
  O     -502.151    -447.236    -181.319
  H     -501.820    -448.095    -179.492
  H     -502.928    -446.703    -179.479
  H     -501.167    -446.452    -179.685
  P     -502.474    -445.891    -182.136
  C     -504.195    -446.782    -183.858
  O     -502.844    -446.402    -183.613
  C     -504.326    -447.433    -185.231
  O     -503.927    -446.508    -186.264
  C     -503.462    -448.677    -185.422
  O     -504.118    -449.818    -184.888
  C     -503.385    -448.746    -186.941
  O     -504.588    -449.347    -187.460
  C     -503.325    -447.263    -187.344
  N     -499.089    -447.665    -190.214
  C     -500.168    -448.462    -190.106
  N     -501.233    -448.327    -189.281
  C     -501.110    -447.220    -188.521
  C     -500.057    -446.315    -188.524
  C     -499.011    -446.567    -189.430
  N     -497.903    -445.753    -189.536
  N     -500.278    -445.308    -187.610
  C     -501.468    -445.567    -187.110
  N     -501.997    -446.732    -187.599
  O     -501.443    -444.818    -182.047
  O     -503.911    -445.505    -181.535
  H     -504.639    -450.246    -187.082
  H     -504.456    -446.304    -181.420
  H     -500.188    -449.326    -190.758
  H     -501.997    -444.936    -186.401
  H     -503.917    -447.064    -188.249
  H     -502.549    -449.354    -187.290
  H     -502.459    -448.543    -185.017
  H     -505.385    -447.663    -185.399
  H     -504.851    -445.903    -183.798
  H     -497.120    -446.110    -190.060
  H     -497.793    -445.010    -188.860
  H     -504.487    -447.485    -183.069
  P     -503.286    -451.006    -184.203
  C     -503.793    -452.442    -186.276
  O     -503.868    -452.352    -184.860
  O     -503.257    -450.967    -182.713
  O     -501.833    -450.894    -184.853
  H     -501.185    -451.392    -184.314
  H     -504.208    -453.375    -186.597
  H     -502.770    -452.382    -186.584
  H     -504.345    -451.637    -186.714

 6  7  8  9  10  11  12  13  14  15  25  28  32  33  34  35 0
 6-311+G(2d,p)
 ****
 36  39  40 0
 6-311+G(2d,p)
 ****
 1  2  3  4  5  16  17  18  19  20  21  22  23  24 0
 3-21G
 ****
 26  27  29  30  31  37  38  41  42  43  44  45  46  47 0
 3-21G
 ****
 48 0
 3-21G
 ****


