%nproc=1
%NoSave
%Mem=1900MB
#P OB98/GEN NMR

erre ene a

0 1
  C      612.541    -346.274    -348.764
  O      613.136    -347.410    -349.383
  P      614.707    -347.775    -349.236
  C      614.103    -349.829    -347.782
  O      614.906    -348.665    -347.890
  C      613.773    -350.124    -346.307
  O      614.997    -350.397    -345.564
  C      613.027    -348.988    -345.583
  O      612.060    -349.619    -344.714
  C      614.134    -348.345    -344.770
  O      613.692    -347.538    -343.700
  C      614.929    -349.585    -344.361
  N      616.264    -349.357    -343.812
  C      616.404    -349.287    -342.418
  O      615.420    -349.362    -341.678
  N      617.650    -349.107    -341.888
  C      618.691    -348.978    -342.659
  N      619.891    -348.816    -342.076
  C      618.580    -349.041    -344.148
  C      617.370    -349.216    -344.630
  O      615.602    -346.589    -349.312
  O      615.023    -348.797    -350.416
  H      615.924    -348.648    -350.755
  H      613.080    -346.878    -344.034
  H      619.476    -348.942    -344.758
  H      617.221    -349.301    -345.716
  H      614.329    -350.159    -343.606
  H      614.721    -347.701    -345.436
  H      612.511    -348.307    -346.241
  H      613.188    -351.053    -346.278
  H      619.932    -348.797    -341.061
  H      614.667    -350.666    -348.191
  H      620.758    -348.720    -342.593
  H      613.189    -349.683    -348.364
  P      610.516    -349.219    -344.809
  C      609.443    -351.085    -346.271
  O      609.959    -349.762    -346.215
  O      610.617    -347.635    -345.105
  O      609.688    -349.449    -343.595
  H      609.807    -347.192    -344.791
  H      608.492    -351.058    -346.853
  H      609.252    -351.510    -345.295
  H      610.162    -351.694    -346.815
  H      611.499    -346.242    -349.004
  H      613.016    -345.384    -349.120
  H      612.661    -346.342    -347.703

 3  4  5  6  7  8  9  10  11  12  13  24  27  28  29  30  32 0
 6-311+G(2d,p)
 ****
 34  35 0
 6-311+G(2d,p)
 ****
 1  2  14  15  16  17  18  19  20  21  22  23  25  26 0
 3-21G
 ****
 31  33  36  37  38  39  40  41  42  43  44  45  46 0
 3-21G
 ****


