%nproc=1
%NoSave
%Mem=1900MB
#P OB98/GEN NMR

erre ene a

0 1
  C       42.705    -275.405    -107.514
  O       41.932    -274.468    -108.280
  P       40.359    -274.368    -107.979
  C       38.612    -272.441    -108.050
  O       39.832    -272.970    -108.553
  C       38.492    -270.954    -108.394
  O       39.521    -270.168    -107.746
  C       38.626    -270.663    -109.888
  O       37.393    -270.870    -110.574
  C       38.964    -269.181    -109.870
  O       37.765    -268.403    -109.679
  C       39.870    -269.070    -108.635
  N       43.809    -266.525    -110.538
  C       42.500    -266.124    -110.336
  N       42.200    -264.856    -110.685
  N       41.573    -266.897    -109.840
  C       42.022    -268.138    -109.514
  C       43.288    -268.650    -109.669
  C       44.305    -267.790    -110.237
  O       45.473    -268.094    -110.452
  N       43.358    -269.950    -109.237
  C       42.138    -270.212    -108.800
  N       41.285    -269.151    -108.964
  O       40.313    -274.140    -106.393
  O       39.577    -275.575    -108.388
  H       37.307    -268.379    -110.542
  H       39.475    -274.486    -106.033
  H       44.478    -265.890    -110.931
  H       41.826    -271.155    -108.363
  H       39.715    -268.140    -108.079
  H       39.416    -268.845    -110.807
  H       42.878    -264.190    -111.029
  H       39.444    -271.235    -110.331
  H       41.256    -264.530    -110.510
  H       37.514    -270.599    -108.048
  H       38.564    -272.572    -106.963
  H       37.779    -273.017    -108.455
  P       37.402    -271.818    -111.864
  C       35.605    -272.582    -113.573
  O       35.930    -271.746    -112.476
  O       37.493    -273.286    -111.226
  O       38.524    -271.560    -112.818
  H       37.981    -273.881    -111.821
  H       34.524    -272.521    -113.748
  H       35.867    -273.619    -113.363
  H       36.127    -272.237    -114.473
  H       43.728    -275.360    -107.823
  H       42.327    -276.393    -107.673
  H       42.635    -275.160    -106.475

 3  4  5  6  7  8  9  10  11  12  23  26  30  31 0
 6-311+G(2d,p)
 ****
 33  35  36  37  38 0
 6-311+G(2d,p)
 ****
 1  2  13  14  15  16  17  18  19  20  21  22  24  25 0
 3-21G
 ****
 27  28  29  32  34  39  40  41  42  43  44  45  46  47  48  49 0
 3-21G
 ****


