%nproc=1
%NoSave
%Mem=1900MB
#P OB98/GEN NMR

erre ene a

0 1
  C     -236.303    -570.683     -57.770
  O     -236.831    -570.413     -59.054
  H     -236.045    -569.733     -57.293
  H     -235.395    -571.286     -57.856
  H     -237.039    -571.200     -57.148
  P     -237.431    -571.627     -59.910
  C     -239.682    -571.442     -58.664
  O     -238.598    -572.285     -59.035
  C     -241.003    -572.188     -58.846
  O     -241.266    -572.398     -60.249
  C     -241.026    -573.567     -58.207
  O     -241.186    -573.482     -56.803
  C     -242.194    -574.205     -58.943
  O     -243.446    -573.795     -58.374
  C     -242.019    -573.626     -60.364
  N     -241.368    -574.559     -61.284
  C     -242.172    -575.553     -61.831
  O     -243.363    -575.691     -61.554
  N     -241.548    -576.417     -62.691
  C     -240.210    -576.451     -62.966
  O     -239.689    -577.304     -63.679
  C     -239.405    -575.392     -62.339
  C     -240.012    -574.510     -61.541
  O     -236.431    -572.590     -60.457
  O     -238.238    -570.893     -61.087
  H     -243.461    -574.147     -57.462
  H     -237.729    -570.961     -61.917
  H     -242.112    -577.153     -63.089
  H     -238.347    -575.375     -62.541
  H     -239.431    -573.727     -61.066
  H     -242.998    -573.356     -60.787
  H     -242.166    -575.291     -58.903
  H     -240.112    -574.112     -58.457
  H     -241.809    -571.557     -58.442
  H     -239.671    -570.554     -59.302
  H     -239.550    -571.132     -57.620
  P     -240.682    -574.680     -55.870
  C     -238.244    -573.910     -55.647
  O     -239.121    -574.904     -56.157
  O     -241.520    -575.917     -55.912
  O     -240.691    -574.043     -54.400
  H     -241.302    -574.546     -53.834
  H     -237.235    -574.163     -55.897
  H     -238.345    -573.857     -54.583
  H     -238.491    -572.962     -56.077

 6  7  8  9  10  11  12  13  14  15  16  26  31  32  33  34  35 0
 6-311+G(2d,p)
 ****
 36  37 0
 6-311+G(2d,p)
 ****
 1  2  3  4  5  17  18  19  20  21  22  23  24  25 0
 3-21G
 ****
 27  28  29  30  38  39  40  41  42  43  44  45 0
 3-21G
 ****


