%nproc=1
%NoSave
%Mem=1900MB
#P OB98/GEN NMR

erre ene a

0 1
  C     -188.542      79.568    -107.979
  O     -189.757      80.005    -107.401
  H     -188.397      78.514    -107.733
  H     -187.705      80.145    -107.575
  H     -188.579      79.678    -109.066
  P     -190.169      81.533    -107.664
  C     -192.384      80.938    -108.889
  O     -191.769      81.560    -107.766
  C     -193.901      80.996    -108.739
  O     -194.320      82.364    -108.522
  C     -194.661      80.531    -109.973
  O     -194.710      79.120    -110.080
  C     -196.020      81.170    -109.740
  O     -196.832      80.372    -108.870
  C     -195.654      82.495    -109.061
  N     -198.630      86.224    -110.879
  C     -198.821      85.314    -109.899
  N     -197.971      84.360    -109.465
  C     -196.809      84.421    -110.138
  C     -196.469      85.294    -111.157
  C     -197.443      86.235    -111.527
  N     -197.260      87.146    -112.542
  N     -195.200      85.019    -111.628
  C     -194.777      84.007    -110.901
  N     -195.714      83.612    -109.984
  O     -189.687      81.783    -109.170
  O     -189.574      82.522    -106.719
  H     -196.977      79.523    -109.333
  H     -188.833      82.255    -109.164
  H     -199.786      85.352    -109.403
  H     -193.814      83.522    -111.004
  H     -196.322      82.731    -108.225
  H     -196.559      81.291    -110.679
  H     -194.215      80.968    -110.878
  H     -194.191      80.408    -107.859
  H     -192.067      79.892    -108.942
  H     -192.066      81.455    -109.798
  H     -198.026      87.745    -112.802
  H     -196.422      87.085    -113.107
  P     -194.644      78.478    -111.546
  C     -193.515      76.259    -110.771
  O     -194.642      76.885    -111.369
  O     -193.159      78.809    -112.042
  O     -195.673      78.992    -112.495
  H     -193.162      78.987    -113.004
  H     -193.675      75.202    -110.729
  H     -193.380      76.639    -109.780
  H     -192.642      76.465    -111.354

 6  7  8  9  10  11  12  13  14  15  25  28  32  33  34  35 0
 6-311+G(2d,p)
 ****
 36  37  40 0
 6-311+G(2d,p)
 ****
 1  2  3  4  5  16  17  18  19  20  21  22  23  24 0
 3-21G
 ****
 26  27  29  30  31  38  39 41  42  43  44  45  46  47  48 0
 3-21G
 ****


