%nproc=1
%NoSave
%Mem=1900MB
#P OB98/GEN NMR

erre ene a

0 1
  C      231.338    -145.006    -594.313
  O      231.270    -144.313    -593.062
  P      232.250    -144.827    -591.893
  C      230.712    -144.097    -589.916
  O      231.958    -143.927    -590.590
  C      230.085    -142.741    -589.606
  O      229.605    -142.104    -590.806
  C      228.869    -142.812    -588.692
  O      229.240    -142.941    -587.324
  C      228.221    -141.455    -588.943
  O      228.870    -140.449    -588.137
  C      228.517    -141.223    -590.437
  N      226.391    -140.384    -594.964
  C      227.577    -139.893    -594.433
  N      228.310    -139.093    -595.241
  N      228.000    -140.173    -593.234
  C      227.179    -141.013    -592.549
  C      225.981    -141.556    -592.962
  C      225.506    -141.215    -594.288
  O      224.450    -141.588    -594.794
  N      225.437    -142.366    -592.001
  C      226.317    -142.335    -591.021
  N      227.383    -141.512    -591.296
  O      233.688    -144.312    -592.373
  O      232.219    -146.303    -591.688
  H      229.728    -140.250    -588.566
  H      234.391    -144.886    -592.012
  H      226.113    -140.128    -595.894
  H      226.230    -142.886    -590.086
  H      228.843    -140.199    -590.627
  H      227.161    -141.438    -588.685
  H      228.082    -138.897    -596.207
  H      228.183    -143.613    -589.006
  H      229.202    -138.757    -594.888
  H      230.853    -142.101    -589.152
  H      230.873    -144.648    -588.985
  H      230.056    -144.710    -590.536
  P      228.337    -143.898    -586.405
  C      227.720    -141.935    -584.816
  O      228.320    -143.208    -584.954
  O      229.257    -145.194    -586.209
  O      227.002    -144.230    -586.982
  H      228.695    -145.987    -586.072
  H      226.780    -141.870    -585.369
  H      228.416    -141.162    -585.180
  H      227.518    -141.751    -583.756
  H      230.643    -144.571    -595.000
  H      231.094    -146.037    -594.163
  H      232.328    -144.928    -594.711

 3  4  5  6  7  8  9  10  11  12  23  26  30  31  33  0
 6-311+G(2d,p)
 ****
 35  36  37  38 0
 6-311+G(2d,p)
 ****
 1  2  13  14  15  16  17  18  19  20  21  22  24  25  27  28  29 0
 3-21G
 ****
 32  34  39  40  41  42  43  44  45  46  47  48  49 0
 3-21G
 ****


