%nproc=1
%NoSave
%Mem=1900MB
#P OB98/GEN NMR

erre ene a

0 1
  C     -134.475     770.329     129.737
  O     -134.775     768.992     130.088
  P     -135.127     768.605     131.603
  C     -133.727     767.793     133.587
  O     -133.781     768.658     132.473
  C     -132.304     767.700     134.148
  O     -131.442     767.045     133.163
  C     -131.666     769.053     134.504
  O     -130.894     768.854     135.694
  C     -130.760     769.321     133.310
  O     -129.722     770.240     133.628
  C     -130.301     767.903     132.967
  N     -129.783     767.799     131.617
  C     -128.450     768.186     131.415
  O     -127.820     768.715     132.329
  N     -127.882     767.976     130.176
  C     -128.641     767.589     129.193
  N     -128.023     767.334     128.000
  C     -130.093     767.417     129.309
  C     -130.599     767.490     130.551
  O     -135.916     767.340     131.763
  O     -135.964     769.866     132.152
  H     -136.818     769.549     132.517
  H     -129.105     770.297     132.875
  H     -130.693     767.222     128.431
  H     -131.655     767.354     130.741
  H     -129.526     767.569     133.680
  H     -131.341     769.747     132.487
  H     -132.419     769.834     134.675
  H     -132.329     767.054     135.028
  H     -127.017     767.426     127.968
  H     -134.050     766.806     133.266
  H     -128.453     766.748     127.286
  H     -134.419     768.144     134.368
  P     -131.240     769.774     136.972
  C     -129.913     771.674     138.158
  O     -130.249     771.047     136.947
  O     -130.606     768.900     138.167
  O     -132.683     770.037     137.244
  H     -131.070     769.124     139.001
  H     -129.315     772.555     137.950
  H     -129.336     770.994     138.790
  H     -130.826     771.996     138.689
  H     -134.269     770.385     128.689
  H     -133.619     770.659     130.287
  H     -135.311     770.955     129.970

 3  4  5  6  7  8  9  10  11  12  13  24  27  28  29  30  32 0
 6-311+G(2d,p)
 ****
 34  35 0
 6-311+G(2d,p)
 ****
 1  2  14  15  16  17  18  19  20  21  22  23  25  26 0
 3-21G
 ****
 31  33  36  37  38  39  40  41  42  43  44  45  46 0
 3-21G
 ****


