%nproc=1
%NoSave
%Mem=1900MB
#P OB98/GEN NMR

erre ene a

0 1
  C      -38.805    -892.480    -309.998
  O      -39.680    -893.630    -309.942
  P      -40.800    -893.820    -311.067
  C      -39.916    -896.280    -311.162
  O      -40.489    -895.180    -311.857
  C      -39.562    -897.420    -312.128
  O      -40.748    -897.890    -312.799
  C      -38.612    -896.990    -313.252
  O      -37.274    -896.910    -312.792
  C      -38.834    -898.110    -314.261
  O      -38.055    -899.290    -313.920
  C      -40.343    -898.400    -314.094
  N      -41.138    -897.850    -315.191
  C      -42.377    -898.440    -315.421
  O      -42.790    -899.400    -314.774
  N      -43.124    -897.860    -316.423
  C      -42.728    -896.860    -317.249
  O      -43.430    -896.420    -318.144
  C      -41.363    -896.340    -317.020
  C      -40.648    -896.840    -316.029
  O      -40.375    -892.710    -312.151
  O      -42.215    -893.630    -310.628
  H      -38.336    -900.000    -314.513
  H      -41.176    -892.440    -312.652
  H      -44.043    -898.270    -316.577
  H      -40.995    -895.560    -317.669
  H      -39.638    -896.490    -315.842
  H      -40.526    -899.490    -314.053
  H      -38.545    -897.820    -315.272
  H      -38.929    -896.050    -313.679
  H      -39.159    -898.250    -311.551
  H      -40.626    -896.660    -310.405
  H      -39.013    -895.950    -310.624
  P      -36.841    -895.550    -312.067
  C      -36.037    -897.080    -310.110
  O      -36.684    -895.910    -310.513
  O      -38.199    -894.700    -312.178
  O      -35.648    -894.910    -312.721
  H      -38.995    -895.270    -312.123
  H      -35.220    -897.350    -310.774
  H      -36.760    -897.910    -310.076
  H      -35.638    -896.930    -309.107
  H      -38.122    -892.511    -309.175
  H      -39.389    -891.585    -309.944
  H      -38.257    -892.493    -310.917

 3  4  5  6  7  8  9  10  11  12  13  23  28  29  30  31  32 0
 6-311+G(2d,p)
 ****
 33  34 0
 6-311+G(2d,p)
 ****
 1  2  14  15  16  17  18  19  20  21  22  24  25  26 0
 3-21G
 ****
 27  35  36  37  38  39  40  41  42  43  44  45 0
 3-21G
 ****


