%nproc=1
%NoSave
%Mem=1900MB
#P OB98/GEN NMR

erre ene a

0 1
  C      296.742      76.504    -236.983
  O      297.800      75.991    -237.764
  H      296.632      77.577    -237.165
  H      295.815      76.001    -237.271
  H      296.925      76.325    -235.918
  P      299.283      76.471    -237.381
  C      299.342      77.559    -239.742
  O      299.606      77.710    -238.353
  C      300.411      78.276    -240.569
  O      300.141      79.705    -240.541
  C      301.837      78.063    -240.044
  O      302.723      77.935    -241.158
  C      302.132      79.349    -239.292
  O      303.527      79.617    -239.207
  C      301.344      80.368    -240.110
  N      302.959      85.028    -238.767
  C      303.445      84.116    -239.637
  N      302.951      82.899    -239.942
  C      301.803      82.673    -239.275
  C      301.185      83.502    -238.355
  C      301.817      84.731    -238.096
  N      301.348      85.647    -237.182
  N      300.043      82.904    -237.854
  C      299.977      81.736    -238.468
  N      301.021      81.551    -239.329
  O      300.191      75.285    -237.965
  O      299.534      76.705    -235.929
  H      303.646      80.542    -238.898
  H      300.178      74.530    -237.346
  H      304.359      84.403    -240.155
  H      299.205      80.992    -238.316
  H      301.895      80.707    -240.998
  H      301.735      79.278    -238.272
  H      301.925      77.183    -239.409
  H      300.318      77.957    -241.615
  H      298.356      77.985    -239.966
  H      301.893      86.479    -237.020
  H      300.532      85.419    -236.629
  H      299.337      76.490    -239.993
  P      303.089      76.442    -241.626
  C      305.569      76.113    -240.937
  O      304.208      75.854    -240.629
  O      303.881      76.664    -242.997
  O      301.897      75.566    -241.821
  H      303.518      76.085    -243.690
  H      306.194      75.665    -240.193
  H      305.736      77.170    -240.954
  H      305.803      75.700    -241.896

 6  7  8  9  10  11  12  13  14  15  25  28  32  33  34  35 0
 6-311+G(2d,p)
 ****
 36  39  40 0
 6-311+G(2d,p)
 ****
 1  2  3  4  5  16  17  18  19  20  21  22  23  24 0
 3-21G
 ****
 26  27  29  30  31  37  38  41  42  43  44  45  46  47 0
 3-21G
 ****
 48 0
 3-21G
 ****


