%nproc=1
%NoSave
%Mem=1900MB
#P OB98/GEN NMR

erre ene a

0 1
  C      -51.294    -894.100     280.581
  O      -52.657    -894.450     280.642
  H      -51.148    -893.230     279.933
  H      -50.949    -893.850     281.589
  H      -50.705    -894.940     280.203
  P      -53.375    -894.820     279.248
  C      -54.117    -897.200     279.968
  O      -54.532    -895.890     279.575
  C      -55.340    -898.020     280.366
  O      -55.768    -897.620     281.697
  C      -56.550    -897.900     279.417
  O      -56.923    -899.170     278.905
  C      -57.686    -897.390     280.302
  O      -58.937    -898.000     280.023
  C      -57.196    -897.720     281.712
  N      -61.222    -896.960     284.767
  C      -60.719    -898.090     284.204
  N      -59.585    -898.250     283.489
  C      -58.919    -897.070     283.400
  C      -59.286    -895.850     283.939
  C      -60.511    -895.810     284.632
  N      -61.035    -894.660     285.164
  N      -58.339    -894.890     283.632
  C      -57.457    -895.500     282.876
  N      -57.767    -896.820     282.692
  O      -52.255    -895.680     278.479
  O      -53.815    -893.640     278.436
  H      -59.242    -897.650     279.162
  H      -52.171    -895.360     277.569
  H      -61.320    -898.980     284.336
  H      -56.597    -895.040     282.409
  H      -57.451    -898.750     282.004
  H      -57.776    -896.300     280.167
  H      -56.350    -897.200     278.586
  H      -55.031    -899.080     280.439
  H      -53.439    -897.120     280.830
  H      -61.963    -894.700     285.538
  H      -60.556    -893.780     284.987
  H      -53.590    -897.660     279.135
  P      -57.548    -899.210     277.410
  C      -55.349    -899.330     276.044
  O      -56.525    -900.000     276.473
  O      -57.403    -897.680     276.930
  O      -58.975    -899.680     277.374
  H      -58.096    -897.470     276.268
  H      -54.770    -899.986     275.428
  H      -54.772    -899.040     276.897
  H      -55.619    -898.459     275.483

 6  7  8  9  10  11  12  13  14  15  25  28  32  33  34  35 0
 6-311+G(2d,p)
 ****
 36  39  40 0
 6-311+G(2d,p)
 ****
 1  2  3  4  5  16  17  18  19  20  21  22  23  24 0
 3-21G
 ****
 26  27  29  30  31  37  38  41  42  43  44  45  46  47  48 0
 3-21G
 ****


