%nproc=1
%NoSave
%Mem=1900MB
#P OB98/GEN NMR

erre ene a

0 1
  C     -180.417     330.154     404.974
  O     -179.074     330.450     405.301
  P     -177.932     329.343     405.112
  C     -175.396     329.256     404.699
  O     -176.534     330.093     404.888
  C     -174.134     330.096     404.554
  O     -174.036     330.660     403.229
  C     -174.072     331.291     405.491
  O     -173.813     330.906     406.831
  C     -172.976     332.122     404.837
  O     -171.678     331.623     405.200
  C     -173.248     331.867     403.340
  N     -173.906     332.992     402.699
  C     -173.079     334.050     402.314
  O     -171.879     334.041     402.593
  N     -173.640     335.104     401.632
  C     -174.920     335.156     401.458
  N     -175.412     336.192     400.723
  C     -175.850     334.132     401.992
  C     -175.276     333.084     402.576
  O     -178.244     328.280     404.112
  O     -177.762     328.707     406.574
  H     -177.802     327.735     406.503
  H     -171.645     331.617     406.178
  H     -176.917     334.260     401.883
  H     -175.873     332.275     402.981
  H     -172.309     331.662     402.811
  H     -173.013     333.174     405.135
  H     -175.023     331.844     405.450
  H     -173.268     329.439     404.717
  H     -174.745     336.860     400.357
  H     -175.546     328.655     403.797
  H     -176.319     336.151     400.261
  H     -175.310     328.572     405.556
  P     -174.330     331.897     407.986
  C     -174.719     331.724     410.537
  O     -174.466     331.039     409.330
  O     -175.848     332.193     407.563
  O     -173.547     333.162     408.116
  H     -176.076     333.118     407.781
  H     -175.124     331.014     411.269
  H     -175.441     332.533     410.397
  H     -173.784     332.135     410.932
  H     -181.028     331.011     405.166
  H     -180.757     329.333     405.570
  H     -180.483     329.894     403.938

 3  4  5  6  7  8  9  10  11  12  13  24  27  28  29  30  32 0
 6-311+G(2d,p)
 ****
 34  35 0
 6-311+G(2d,p)
 ****
 1  2  14  15  16  17  18  19  20  21  22  23  25  26 0
 3-21G
 ****
 31  33  36  37  38  39  40  41  42  43  44  45  46 0
 3-21G
 ****


