%nproc=1
%NoSave
%Mem=1900MB
#P OB98/GEN NMR

erre ene a

0 1
  C      334.378     330.589      83.637
  O      335.669     330.099      83.331
  H      334.262     330.621      84.721
  H      333.612     329.931      83.223
  H      334.251     331.602      83.242
  P      336.081     329.955      81.789
  C      335.086     328.522      79.884
  O      335.380     328.606      81.273
  C      334.087     327.403      79.627
  O      332.871     327.634      80.373
  C      333.676     327.260      78.162
  O      334.663     326.537      77.441
  C      332.367     326.505      78.313
  O      332.639     325.118      78.597
  C      331.757     327.189      79.551
  N      327.160     329.267      80.111
  C      327.628     328.025      80.507
  N      326.733     327.207      81.098
  N      328.858     327.621      80.320
  C      329.624     328.515      79.654
  C      329.265     329.767      79.197
  C      327.925     330.227      79.460
  O      327.470     331.327      79.139
  N      330.295     330.358      78.505
  C      331.280     329.484      78.578
  N      330.920     328.341      79.250
  O      337.548     330.025      81.486
  O      335.256     331.111      81.056
  H      331.770     324.677      78.680
  H      335.778     331.930      80.986
  H      326.196     329.510      80.271
  H      332.275     329.632      78.166
  H      331.152     326.498      80.152
  H      331.746     326.536      77.420
  H      325.736     327.351      81.005
  H      333.464     328.235      77.704
  H      327.044     326.274      81.350
  H      334.523     326.469      80.005
  H      336.029     328.324      79.361
  H      334.677     329.475      79.520
  P      334.694     326.563      75.832
  C      333.296     325.322      74.047
  O      333.794     325.318      75.378
  O      336.058     326.593      75.236
  O      333.788     327.812      75.430
  H      334.285     328.668      75.379
  H      332.716     324.438      73.881
  H      334.116     325.345      73.360
  H      332.682     326.185      73.899

 6  7  8  9  10  11  12  13  14  15  26  29  33  34 0
 6-311+G(2d,p)
 ****
 36  38  39  40  41 0
 6-311+G(2d,p)
 ****
 1  2  3  4  5  16  17  18  19  20  21  22  23  24  25 0
 3-21G
 ****
 27  28  30  31  32  35  37  42  43  44  45  46  47 0
 3-21G
 ****
 48  49 0
 3-21G
 ****


