%nproc=1
%NoSave
%Mem=1900MB
#P OB98/GEN NMR

erre ene a

0 1
  C      -89.070    -379.800    -131.314
  O      -88.267    -378.652    -131.023
  P      -87.399    -378.670    -129.676
  C      -89.185    -377.894    -127.945
  O      -88.389    -378.956    -128.429
  C      -90.226    -378.372    -126.923
  O      -89.559    -378.977    -125.771
  C      -91.120    -377.261    -126.369
  O      -92.386    -377.823    -126.037
  C      -90.404    -376.870    -125.087
  O      -91.272    -376.152    -124.198
  C      -89.948    -378.245    -124.594
  N      -88.467    -376.263    -120.195
  C      -89.660    -376.128    -120.879
  N      -90.617    -375.365    -120.296
  N      -89.901    -376.671    -122.046
  C      -88.858    -377.427    -122.492
  C      -87.639    -377.638    -121.917
  C      -87.372    -377.004    -120.650
  O      -86.338    -377.069    -120.004
  N      -86.833    -378.438    -122.694
  C      -87.591    -378.723    -123.737
  N      -88.823    -378.155    -123.661
  O      -86.995    -377.119    -129.479
  O      -86.184    -379.532    -129.740
  H      -90.698    -375.732    -123.518
  H      -86.060    -376.992    -129.672
  H      -88.334    -375.798    -119.318
  H      -87.282    -379.315    -124.600
  H      -90.747    -378.795    -124.102
  H      -89.546    -376.224    -125.313
  H      -90.517    -374.957    -119.370
  H      -91.269    -376.412    -127.043
  H      -91.513    -375.278    -120.764
  H      -90.829    -379.163    -127.389
  H      -89.717    -377.405    -128.789
  H      -88.537    -377.119    -127.528
  P      -93.503    -377.811    -127.179
  C      -94.839    -375.582    -127.073
  O      -93.713    -376.280    -127.598
  O      -94.866    -378.165    -126.367
  O      -93.265    -378.764    -128.288
  H      -95.517    -378.571    -126.968
  H      -94.495    -374.907    -126.262
  H      -95.593    -376.262    -126.691
  H      -95.263    -374.967    -127.884
  H      -89.590    -379.647    -132.237
  H      -89.779    -379.949    -130.526
  H      -88.442    -380.663    -131.397

 3  4  5  6  7  8  9  10  11  12  23  26  30  31 0
 6-311+G(2d,p)
 ****
 33  35  36  37  38 0
 6-311+G(2d,p)
 ****
 1  2  13  14  15  16  17  18  19  20  21  22  24  25 0
 3-21G
 ****
 27  28  29  32  34  39  40  41  42  43  44  45  46  47  48  49 0
 3-21G
 ****


