%nproc=1
%NoSave
%Mem=1900MB
#P OB98/GEN NMR

erre ene a

0 1
  C     -398.217     342.384     253.015
  O     -398.002     342.683     254.383
  H     -397.338     342.660     252.424
  H     -398.389     341.306     252.909
  H     -399.098     342.921     252.643
  P     -397.697     344.217     254.746
  C     -400.210     344.778     255.124
  O     -399.037     345.017     254.357
  C     -400.118     345.558     256.439
  O     -399.829     346.952     256.175
  C     -401.413     345.549     257.250
  O     -401.557     344.365     258.022
  C     -401.194     346.763     258.136
  O     -400.277     346.439     259.197
  C     -400.547     347.756     257.156
  N     -403.613     351.839     257.591
  C     -402.729     351.284     258.446
  N     -401.931     350.203     258.249
  C     -402.107     349.706     257.013
  C     -402.968     350.179     256.032
  C     -403.754     351.296     256.358
  N     -404.677     351.849     255.501
  N     -402.884     349.389     254.889
  C     -401.977     348.472     255.186
  N     -401.499     348.602     256.466
  O     -396.662     344.682     253.616
  O     -397.202     344.475     256.134
  H     -399.421     346.220     258.777
  H     -396.237     345.524     253.867
  H     -402.648     351.754     259.423
  H     -401.641     347.697     254.509
  H     -399.817     348.418     257.641
  H     -402.120     347.113     258.608
  H     -402.285     345.722     256.613
  H     -399.282     345.151     257.029
  H     -400.291     343.712     255.334
  H     -405.296     352.555     255.876
  H     -404.891     351.370     254.637
  H     -401.087     345.106     254.558
  P     -403.047     343.837     258.286
  C     -402.989     342.093     256.354
  O     -403.592     343.276     256.874
  O     -403.882     345.189     258.487
  O     -403.188     342.910     259.450
  H     -404.616     345.057     259.111
  H     -403.447     341.840     255.420
  H     -403.125     341.289     257.047
  H     -401.943     342.262     256.204

 6  7  8  9  10  11  12  13  14  15  25  28  32  33  34  35 0
 6-311+G(2d,p)
 ****
 36  39  40 0
 6-311+G(2d,p)
 ****
 1  2  3  4  5  16  17  18  19  20  21  22  23  24 0
 3-21G
 ****
 26  27  29  30  31  37  38  41  42  43  44  45  46  47 0
 3-21G
 ****
 48 0
 3-21G
 ****


