%nproc=1
%NoSave
%Mem=1900MB
#P OB98/GEN NMR

erre ene a

0 1
  C        2.764     -65.459    -129.611
  O        2.432     -66.109    -130.838
  P        2.206     -65.223    -132.155
  C        4.485     -65.170    -133.356
  O        3.190     -65.753    -133.309
  C        5.266     -65.675    -134.577
  O        6.123     -66.797    -134.209
  C        4.346     -66.164    -135.704
  O        4.940     -65.906    -136.987
  C        4.326     -67.666    -135.497
  O        3.934     -68.357    -136.681
  C        5.768     -67.911    -135.055
  N        5.544     -73.016    -135.401
  C        5.394     -72.044    -136.329
  N        5.491     -70.708    -136.170
  C        5.787     -70.402    -134.895
  C        5.979     -71.283    -133.840
  C        5.838     -72.652    -134.131
  N        5.961     -73.639    -133.179
  N        6.264     -70.603    -132.675
  C        6.198     -69.330    -133.009
  N        5.946     -69.159    -134.343
  O        2.214     -63.745    -131.949
  O        0.771     -65.721    -132.675
  H        3.044     -68.041    -136.924
  H        0.254     -64.948    -132.972
  H        5.161     -72.387    -137.335
  H        6.309     -68.499    -132.327
  H        6.460     -67.911    -135.906
  H        3.618     -67.922    -134.700
  H        3.339     -65.732    -135.689
  H        5.924     -64.875    -134.936
  H        5.031     -65.407    -132.441
  H        5.728     -74.582    -133.455
  H        6.032     -73.374    -132.207
  H        4.387     -64.078    -133.372
  P        4.391     -64.609    -137.770
  C        5.776     -62.843    -136.430
  O        5.548     -63.508    -137.652
  O        3.026     -64.183    -137.337
  O        4.458     -65.093    -139.295
  H        5.309     -65.478    -139.563
  H        6.680     -62.235    -136.522
  H        5.923     -63.560    -135.616
  H        4.934     -62.185    -136.196
  H        2.879     -66.191    -128.839
  H        1.982     -64.779    -129.344
  H        3.680     -64.919    -129.730

 3  4  5  6  7  8  9  10  11  12  22  25  29  30  31  32 0
 6-311+G(2d,p)
 ****
 33  36  37 0
 6-311+G(2d,p)
 ****
 1  2  13  14  15  16  17  18  19  20  21  23  24  26 0
 3-21G
 ****
 27  28  34  35  38  39  40  41  42  43  44  45  46  47  48 0
 3-21G
 ****


