%nproc=1
%NoSave
%Mem=1900MB
#P OB98/GEN NMR

erre ene a

0 1
  C     -627.496     755.709     162.924
  O     -628.358     755.037     162.030
  H     -627.974     755.744     163.908
  H     -627.317     756.736     162.583
  H     -626.553     755.168     163.015
  P     -627.861     754.922     160.507
  C     -628.331     756.359     158.413
  O     -628.300     756.326     159.837
  C     -628.393     757.819     157.928
  O     -629.596     758.427     158.438
  C     -627.203     758.671     158.394
  O     -626.863     759.599     157.358
  C     -627.768     759.428     159.587
  O     -627.051     760.625     159.855
  C     -629.214     759.636     159.141
  N     -630.617     763.118     162.600
  C     -629.846     763.199     161.490
  N     -629.550     762.220     160.607
  C     -630.181     761.068     160.931
  C     -630.984     760.832     162.033
  C     -631.203     761.921     162.902
  N     -631.939     761.842     164.045
  N     -631.403     759.511     162.039
  C     -630.862     758.971     160.972
  N     -630.089     759.870     160.278
  O     -628.313     753.703     159.773
  O     -626.278     755.090     160.655
  H     -627.600     761.200     160.431
  H     -626.053     755.834     161.247
  H     -629.415     764.175     161.283
  H     -630.986     757.927     160.660
  H     -629.333     760.484     158.457
  H     -627.730     758.801     160.490
  H     -626.330     758.073     158.667
  H     -628.474     757.816     156.837
  H     -629.220     755.820     158.045
  H     -632.047     762.671     164.616
  H     -632.390     760.971     164.294
  H     -627.435     755.861     158.036
  P     -625.322     759.764     156.949
  C     -623.319     761.310     157.522
  O     -624.683     760.986     157.797
  O     -625.043     759.807     155.480
  O     -624.633     758.474     157.610
  H     -623.973     758.104     156.993
  H     -623.015     762.128     158.141
  H     -623.218     761.585     156.493
  H     -622.702     760.460     157.726

 6  7  8  9  10  11  12  13  14  15  25  28  32  33  34  35 0
 6-311+G(2d,p)
 ****
 36  39  40 0
 6-311+G(2d,p)
 ****
 1  2  3  4  5  16  17  18  19  20  21  22  23  24 0
 3-21G
 ****
 26  27  29  30  31  37  38  41  42  43  44  45  46  47 0
 3-21G
 ****
 48 0
 3-21G
 ****


