%nproc=1
%NoSave
%Mem=1900MB
#P OB98/GEN NMR

erre ene a

0 1
  C     -496.155     397.563    -338.977
  O     -496.976     398.652    -338.578
  P     -498.100     398.474    -337.432
  C     -500.505     398.291    -338.409
  O     -499.256     397.630    -338.150
  C     -500.347     399.276    -339.550
  O     -499.757     398.607    -340.699
  C     -501.649     399.876    -340.032
  O     -502.123     400.880    -339.150
  C     -501.240     400.375    -341.423
  O     -500.517     401.630    -341.328
  C     -500.268     399.249    -341.869
  N     -500.914     398.302    -342.791
  C     -501.188     398.761    -344.086
  O     -500.916     399.921    -344.418
  N     -501.747     397.895    -344.991
  C     -502.029     396.681    -344.628
  N     -502.527     395.836    -345.562
  C     -501.795     396.175    -343.247
  C     -501.231     397.017    -342.403
  O     -498.555     399.746    -336.792
  O     -497.458     397.405    -336.413
  H     -501.163     402.299    -340.983
  H     -496.928     397.839    -335.703
  H     -502.044     395.149    -342.983
  H     -500.996     396.715    -341.382
  H     -499.393     399.706    -342.379
  H     -502.086     400.530    -342.111
  H     -502.424     399.109    -340.138
  H     -499.631     400.072    -339.221
  H     -502.493     396.182    -346.522
  H     -500.786     398.829    -337.505
  H     -502.491     394.830    -345.449
  H     -501.275     397.522    -338.616
  P     -503.668     401.314    -339.238
  C     -504.091     403.711    -340.142
  O     -503.780     402.369    -340.450
  O     -503.902     402.190    -337.915
  O     -504.602     400.142    -339.323
  H     -504.345     401.672    -337.240
  H     -503.893     404.336    -341.012
  H     -503.502     404.077    -339.283
  H     -505.182     403.772    -339.920
  H     -495.481     397.886    -339.742
  H     -496.770     396.772    -339.354
  H     -495.596     397.210    -338.135

 3  4  5  6  7  8  9  10  11  12  13  23  27  28  29  30  32 0
 6-311+G(2d,p)
 ****
 34  35 0
 6-311+G(2d,p)
 ****
 1  2  14  15  16  17  18  19  20  21  22  24  25  26 0
 3-21G
 ****
 31  33  36  37  38  39  40  41  42  43  44  45  46 0
 3-21G
 ****


