%nproc=1
%NoSave
%Mem=1900MB
#P OB98/GEN NMR

erre ene a

0 1
  C      420.112    -297.839    1336.149
  O      420.695    -296.583    1335.843
  H      419.137    -297.660    1336.626
  H      420.747    -298.386    1336.852
  H      419.959    -298.418    1335.239
  P      422.147    -296.624    1335.162
  C      421.560    -297.402    1332.756
  O      421.917    -296.314    1333.605
  C      420.883    -296.884    1331.488
  O      419.504    -296.532    1331.751
  C      421.537    -295.647    1330.883
  O      422.651    -296.004    1330.069
  C      420.385    -295.064    1330.066
  O      420.236    -295.745    1328.803
  C      419.179    -295.343    1330.983
  N      415.826    -291.697    1331.956
  C      415.813    -292.675    1330.997
  N      414.775    -292.667    1330.125
  N      416.735    -293.603    1330.869
  C      417.721    -293.471    1331.795
  C      417.848    -292.551    1332.814
  C      416.795    -291.559    1332.936
  O      416.722    -290.699    1333.803
  N      418.989    -292.762    1333.543
  C      419.572    -293.788    1332.948
  N      418.856    -294.241    1331.870
  O      422.522    -298.180    1335.171
  O      423.191    -295.803    1335.834
  H      421.107    -295.841    1328.384
  H      423.490    -298.280    1335.249
  H      415.073    -291.030    1331.997
  H      420.511    -294.229    1333.265
  H      418.278    -295.560    1330.409
  H      420.550    -294.020    1329.841
  H      414.245    -291.819    1329.951
  H      421.826    -294.931    1331.663
  H      414.771    -293.371    1329.397
  H      420.864    -297.711    1330.758
  H      420.863    -298.050    1333.294
  H      422.459    -297.966    1332.497
  P      423.785    -294.891    1329.837
  C      425.049    -294.972    1332.109
  O      425.043    -295.324    1330.724
  O      423.212    -293.608    1330.612
  O      424.076    -294.592    1328.398
  H      423.679    -292.799    1330.312
  H      425.950    -295.328    1332.564
  H      424.205    -295.416    1332.594
  H      424.997    -293.908    1332.207

 6  7  8  9  10  11  12  13  14  15  26  29  33  34 0
 6-311+G(2d,p)
 ****
 36  38  39  40  41 0
 6-311+G(2d,p)
 ****
 1  2  3  4  5  16  17  18  19  20  21  22  23  24  25 0
 3-21G
 ****
 27  28  30  31  32  35  37  42  43  44  45  46  47 0
 3-21G
 ****
 48  49 0
 3-21G
 ****


