%nproc=1
%NoSave
%Mem=1900MB
#P OB98/GEN NMR

erre ene a

0 1
  C        2.416     145.788    -234.602
  O        1.912     146.516    -235.729
  P        2.431     146.034    -237.175
  C        3.567     148.228    -237.977
  O        3.744     146.886    -237.541
  C        4.903     148.909    -238.285
  O        4.654     150.222    -238.844
  C        5.820     149.105    -237.073
  O        7.181     148.912    -237.489
  C        5.653     150.576    -236.740
  O        6.760     151.094    -236.007
  C        5.486     151.158    -238.142
  N        6.388     156.127    -238.420
  C        7.252     155.063    -238.581
  N        8.545     155.369    -238.828
  N        6.884     153.811    -238.507
  C        5.557     153.655    -238.287
  C        4.596     154.629    -238.121
  C        5.027     156.008    -238.165
  O        4.319     156.996    -237.978
  N        3.354     154.078    -237.915
  C        3.564     152.777    -237.948
  N        4.886     152.470    -238.164
  O        1.311     146.598    -238.169
  O        2.576     144.554    -237.298
  H        7.569     150.803    -236.467
  H        0.936     145.866    -238.696
  H        6.728     157.071    -238.468
  H        2.810     152.017    -237.800
  H        6.448     151.215    -238.665
  H        4.748     150.711    -236.135
  H        8.884     156.308    -238.962
  H        5.594     148.451    -236.223
  H        9.186     154.603    -238.994
  H        5.416     148.322    -239.057
  H        3.047     148.796    -237.200
  H        2.931     148.225    -238.868
  P        7.848     147.500    -237.114
  C        8.797     148.117    -234.771
  O        7.820     147.416    -235.514
  O        9.396     147.723    -237.454
  O        7.266     146.335    -237.843
  H        9.818     146.872    -237.675
  H        9.367     148.816    -235.392
  H        9.490     147.397    -234.326
  H        8.305     148.675    -233.974
  H        2.005     146.195    -233.702
  H        3.483     145.867    -234.575
  H        2.137     144.759    -234.688

 3  4  5  6  7  8  9  10  11  12  23  26  30  31  33  0
 6-311+G(2d,p)
 ****
 35  36  37  38 0
 6-311+G(2d,p)
 ****
 1  2  13  14  15  16  17  18  19  20  21  22  24  25  27  28  29 0
 3-21G
 ****
 32  34  39  40  41  42  43  44  45  46  47  48  49 0
 3-21G
 ****


