%nproc=1
%NoSave
%Mem=1900MB
#P OB98/GEN NMR

erre ene a

0 1
  C      121.714    -425.947    -258.952
  O      120.606    -426.738    -259.334
  H      121.523    -424.911    -259.242
  H      122.623    -426.290    -259.454
  H      121.855    -425.983    -257.866
  P      120.664    -428.318    -259.080
  C      122.105    -430.283    -259.936
  O      121.750    -428.911    -260.105
  C      122.481    -430.897    -261.291
  O      121.248    -431.189    -262.003
  C      123.325    -429.944    -262.154
  O      124.535    -430.541    -262.625
  C      122.333    -429.446    -263.198
  O      122.916    -429.041    -264.416
  C      121.343    -430.614    -263.319
  N      120.022    -430.219    -263.801
  C      119.729    -430.476    -265.142
  O      120.482    -431.033    -265.941
  N      118.484    -430.079    -265.560
  C      117.542    -429.449    -264.803
  O      116.441    -429.125    -265.234
  C      117.918    -429.183    -263.407
  C      119.121    -429.575    -262.975
  O      119.345    -429.023    -259.083
  O      121.399    -428.456    -257.663
  H      123.719    -428.523    -264.207
  H      120.740    -428.646    -256.969
  H      118.259    -430.271    -266.526
  H      117.198    -428.680    -262.777
  H      119.431    -429.390    -261.951
  H      121.729    -431.376    -263.997
  H      121.813    -428.576    -262.788
  H      123.680    -429.091    -261.562
  H      122.991    -431.853    -261.114
  H      121.242    -430.803    -259.509
  H      122.952    -430.359    -259.245
  P      125.904    -430.568    -261.808
  C      127.520    -428.769    -260.770
  O      126.336    -429.052    -261.510
  O      126.965    -431.470    -262.350
  O      125.475    -431.133    -260.360
  H      126.235    -431.651    -260.022
  H      127.637    -427.710    -260.676
  H      128.366    -429.178    -261.281
  H      127.446    -429.207    -259.797

 6  7  8  9  10  11  12  13  14  15  16  26  31  32  33  34  35 0
 6-311+G(2d,p)
 ****
 36  37 0
 6-311+G(2d,p)
 ****
 1  2  3  4  5  17  18  19  20  21  22  23  24  25 0
 3-21G
 ****
 27  28  29  30  38  39  40  41  42  43  44  45 0
 3-21G
 ****


