%nproc=1
%NoSave
%Mem=1900MB
#P OB98/GEN NMR

erre ene a

0 1
  C     -420.892     870.876      36.537
  O     -421.008     871.861      35.497
  P     -419.968     871.753      34.287
  C     -421.687     871.315      32.373
  O     -420.721     872.211      32.952
  C     -422.504     872.043      31.298
  O     -423.452     872.959      31.888
  C     -421.656     872.884      30.363
  O     -420.955     872.080      29.439
  C     -422.717     873.795      29.747
  O     -423.432     873.085      28.704
  C     -423.662     874.041      30.960
  N     -425.242     878.877      31.391
  C     -425.697     877.846      30.643
  N     -425.225     876.585      30.572
  C     -424.156     876.428      31.406
  C     -423.612     877.384      32.235
  C     -424.175     878.668      32.207
  N     -423.718     879.734      32.978
  N     -422.542     876.861      32.936
  C     -422.454     875.614      32.534
  N     -423.417     875.311      31.613
  O     -419.775     870.171      34.101
  O     -418.666     872.453      34.547
  H     -422.756     872.839      28.038
  H     -418.880     869.912      34.409
  H     -426.546     878.064      30.014
  H     -421.707     874.906      32.854
  H     -424.717     874.016      30.650
  H     -422.319     874.708      29.298
  H     -420.925     873.501      30.939
  H     -423.055     871.275      30.728
  H     -422.349     870.920      33.162
  H     -424.145     880.636      32.825
  H     -422.871     879.607      33.501
  H     -421.170     870.445      31.933
  P     -419.751     872.749      28.610
  C     -417.955     871.095      29.417
  O     -418.745     871.523      28.313
  O     -418.995     873.577      29.767
  O     -420.165     873.559      27.425
  H     -418.873     873.030      30.575
  H     -417.333     870.248      29.089
  H     -418.571     870.813      30.248
  H     -417.263     871.923      29.725
  H     -421.638     871.055      37.283
  H     -419.921     870.940      36.982
  H     -421.030     869.900      36.121

 3  4  5  6  7  8  9  10  11  12  22  25  29  30  31  32 0
 6-311+G(2d,p)
 ****
 33  36  37 0
 6-311+G(2d,p)
 ****
 1  2  13  14  15  16  17  18  19  20  21  23  24  26 0
 3-21G
 ****
 27  28  34  35  38  39  40  41  42  43  44  45  46  47  48 0
 3-21G
 ****


