%nproc=1
%NoSave
%Mem=1900MB
#P OB98/GEN NMR

erre ene a

0 1
  C      -87.391      36.435     188.051
  O      -87.668      35.461     187.060
  P      -87.014      34.006     187.170
  C      -85.265      34.465     185.339
  O      -85.482      34.124     186.705
  C      -83.803      34.836     185.108
  O      -83.467      36.032     185.842
  C      -82.813      33.776     185.577
  O      -82.755      32.699     184.663
  C      -81.528      34.596     185.680
  O      -80.912      34.734     184.384
  C      -82.059      35.952     186.175
  N      -80.317      39.165     189.738
  C      -80.223      39.176     188.388
  N      -80.682      38.259     187.504
  C      -81.272      37.238     188.153
  C      -81.416      37.069     189.525
  C      -80.925      38.109     190.341
  N      -81.073      38.141     191.712
  N      -82.052      35.876     189.805
  C      -82.275      35.330     188.620
  N      -81.879      36.143     187.599
  O      -87.790      32.907     186.519
  O      -86.894      33.757     188.747
  H      -81.613      34.994     183.758
  H      -87.419      32.972     188.994
  H      -79.718      40.038     187.961
  H      -82.734      34.361     188.459
  H      -81.567      36.789     185.661
  H      -80.791      34.137     186.347
  H      -83.091      33.421     186.578
  H      -83.666      35.046     184.038
  H      -85.909      35.317     185.083
  H      -80.819      38.994     192.174
  H      -81.773      37.534     192.127
  H      -85.542      33.615     184.700
  P      -82.349      31.233     185.179
  C      -79.950      31.250     184.268
  O      -80.764      31.249     185.427
  O      -82.853      30.091     184.355
  O      -82.940      31.185     186.670
  H      -83.203      30.269     186.884
  H      -79.904      30.237     183.853
  H      -78.937      31.564     184.549
  H      -80.336      31.940     183.513
  H      -87.910      37.341     187.816
  H      -86.338      36.624     188.080
  H      -87.715      36.075     189.005

 3  4  5  6  7  8  9  10  11  12  22  25  29  30  31  32 0
 6-311+G(2d,p)
 ****
 33  36  37 0
 6-311+G(2d,p)
 ****
 1  2  13  14  15  16  17  18  19  20  21  23  24  26 0
 3-21G
 ****
 27  28  34  35  38  39  40  41  42  43  44  45  46  47  48 0
 3-21G
 ****


