%nproc=1
%NoSave
%Mem=1900MB
#P OB98/GEN NMR

erre ene a

0 1
  C      287.911    -641.577    1034.391
  O      287.549    -640.936    1035.609
  P      286.033    -641.088    1036.140
  C      285.001    -638.738    1035.661
  O      285.116    -640.105    1035.276
  C      283.716    -638.120    1035.085
  O      283.839    -637.839    1033.687
  C      282.499    -639.012    1035.237
  O      281.915    -638.906    1036.508
  C      281.572    -638.401    1034.194
  O      280.946    -637.228    1034.725
  C      282.552    -638.023    1033.064
  N      280.226    -640.101    1029.076
  C      279.839    -639.072    1029.902
  N      278.638    -638.496    1029.623
  N      280.523    -638.630    1030.905
  C      281.719    -639.288    1031.058
  C      282.197    -640.331    1030.325
  C      281.414    -640.814    1029.225
  O      281.694    -641.752    1028.454
  N      283.440    -640.742    1030.795
  C      283.686    -639.949    1031.814
  N      282.645    -639.048    1032.037
  O      286.097    -640.375    1037.564
  O      285.587    -642.502    1036.257
  H      280.326    -637.499    1035.426
  H      285.417    -640.738    1038.158
  H      279.645    -640.422    1028.315
  H      284.579    -639.949    1032.423
  H      282.276    -637.086    1032.587
  H      280.785    -639.086    1033.892
  H      278.073    -638.736    1028.811
  H      282.737    -640.057    1034.962
  H      278.337    -637.699    1030.181
  H      283.530    -637.165    1035.636
  H      285.875    -638.170    1035.325
  H      285.033    -638.673    1036.757
  P      282.271    -640.043    1037.615
  C      279.961    -641.217    1037.305
  O      281.365    -641.314    1037.217
  O      281.586    -639.475    1038.940
  O      283.731    -640.301    1037.790
  H      282.112    -639.773    1039.728
  H      279.514    -642.102    1036.866
  H      279.595    -640.333    1036.793
  H      279.656    -641.162    1038.378
  H      288.941    -641.382    1034.178
  H      287.304    -641.199    1033.595
  H      287.760    -642.632    1034.485

 3  4  5  6  7  8  9  10  11  12  23  26  30  31 0
 6-311+G(2d,p)
 ****
 33  35  36  37  38 0
 6-311+G(2d,p)
 ****
 1  2  13  14  15  16  17  18  19  20  21  22  24  25 0
 3-21G
 ****
 27  28  29  32  34  39  40  41  42  43  44  45  46  47  48  49 0
 3-21G
 ****


