%nproc=1
%NoSave
%Mem=1900MB
#P OB98/GEN NMR

erre ene a

0 1
  C     -100.118     423.278    -311.385
  O      -99.257     424.385    -311.190
  H     -100.098     423.005    -312.447
  H     -101.146     423.540    -311.114
  H      -99.778     422.430    -310.794
  P      -99.219     425.022    -309.717
  C      -98.099     427.211    -310.573
  O      -99.209     426.619    -309.896
  C      -98.293     428.724    -310.645
  O      -99.310     429.045    -311.629
  C      -98.807     429.353    -309.348
  O      -97.772     429.530    -308.396
  C      -99.354     430.666    -309.848
  O      -98.332     431.672    -309.973
  C      -99.926     430.279    -311.241
  N     -101.384     430.185    -311.216
  C     -102.074     431.406    -311.314
  O     -101.501     432.506    -311.409
  N     -103.441     431.326    -311.247
  C     -104.168     430.184    -311.060
  O     -105.391     430.195    -310.967
  C     -103.396     428.939    -310.951
  C     -102.061     428.995    -311.029
  O      -97.744     424.686    -309.210
  O     -100.265     424.502    -308.784
  H      -97.774     423.973    -308.548
  H      -98.789     432.483    -310.275
  H     -103.933     432.191    -311.331
  H     -103.944     428.029    -310.784
  H     -101.464     428.095    -310.932
  H      -99.638     431.030    -311.987
  H     -100.115     431.069    -309.175
  H      -99.626     428.748    -308.933
  H      -97.353     429.190    -310.947
  H      -98.030     426.815    -311.588
  H      -97.182     426.965    -310.031
  P      -97.466     428.316    -307.377
  C      -97.065     430.252    -305.634
  O      -97.563     428.964    -305.900
  O      -95.909     428.095    -307.625
  O      -98.329     427.120    -307.621
  H      -95.473     428.915    -307.929
  H      -97.226     430.491    -304.604
  H      -97.573     430.965    -306.249
  H      -96.017     430.280    -305.847

 6  7  8  9  10  11  12  13  14  15  16  27  31  32  33  34  35 0
 6-311+G(2d,p)
 ****
 36  37 0
 6-311+G(2d,p)
 ****
 1  2  3  4  5  17  18  19  20  21  22  23  24  25 0
 3-21G
 ****
 26  28  29  30  38  39  40  41  42  43  44  45 0
 3-21G
 ****


