%nproc=1
%NoSave
%Mem=1900MB
#P OB98/GEN NMR

erre ene a

0 1
  C       17.300    -531.086     409.278
  O       16.093    -530.313     409.229
  P       15.516    -529.560     410.527
  C       13.478    -531.061     410.966
  O       14.725    -530.593     411.472
  C       12.349    -531.034     412.010
  O       11.044    -531.094     411.369
  C       12.392    -532.179     413.036
  O       11.849    -531.648     414.244
  C       11.436    -533.191     412.415
  O       10.961    -534.158     413.346
  C       10.360    -532.261     411.870
  N        7.184    -536.116     410.717
  C        7.653    -535.657     411.905
  N        8.461    -534.603     412.130
  C        8.761    -533.972     410.985
  C        8.354    -534.319     409.706
  C        7.534    -535.457     409.590
  N        7.097    -535.953     408.383
  N        8.889    -533.452     408.767
  C        9.614    -532.603     409.478
  N        9.569    -532.876     410.818
  O       14.752    -528.310     410.219
  O       16.821    -529.201     411.387
  H       10.306    -534.717     412.893
  H       16.758    -528.276     411.691
  H        7.334    -536.216     412.784
  H       10.210    -531.791     409.065
  H        9.674    -531.937     412.661
  H       11.958    -533.729     411.614
  H       13.396    -532.580     413.197
  H       12.400    -530.067     412.522
  H       13.608    -532.088     410.599
  H        6.587    -536.828     408.396
  H        7.450    -535.554     407.525
  H       13.193    -530.435     410.106
  P       12.502    -531.960     415.673
  C       11.168    -534.081     416.184
  O       12.437    -533.550     415.866
  O       11.944    -531.169     416.811
  O       14.068    -531.678     415.474
  H       14.494    -531.548     416.345
  H       10.936    -533.885     417.236
  H       11.176    -535.165     416.017
  H       10.382    -533.638     415.552
  H       17.500    -531.497     408.311
  H       17.187    -531.880     409.986
  H       18.114    -530.458     409.574

 3  4  5  6  7  8  9  10  11  12  22  25  29  30  31  32 0
 6-311+G(2d,p)
 ****
 33  36  37 0
 6-311+G(2d,p)
 ****
 1  2  13  14  15  16  17  18  19  20  21  23  24  26 0
 3-21G
 ****
 27  28  34  35  38  39  40  41  42  43  44  45  46  47  48 0
 3-21G
 ****


