%nproc=1
%NoSave
%Mem=1900MB
#P OB98/GEN NMR

erre ene a

0 1
  C      574.304      17.449    -978.530
  O      575.549      18.086    -978.820
  P      576.760      17.116    -979.276
  C      577.173      18.526    -981.425
  O      576.897      17.248    -980.882
  C      578.401      18.472    -982.335
  O      579.570      18.042    -981.609
  C      578.266      17.493    -983.510
  O      577.510      18.041    -984.566
  C      579.728      17.331    -983.907
  O      580.131      18.425    -984.762
  C      580.465      17.419    -982.554
  N      584.170      14.706    -980.393
  C      584.151      16.032    -980.773
  N      585.289      16.750    -980.536
  N      583.136      16.611    -981.366
  C      582.066      15.776    -981.510
  C      581.959      14.450    -981.169
  C      583.120      13.831    -980.559
  O      583.194      12.641    -980.224
  N      580.718      13.960    -981.464
  C      580.076      14.979    -981.973
  N      580.854      16.116    -982.032
  O      576.148      15.653    -979.085
  O      578.012      17.305    -978.487
  H      579.607      18.341    -985.588
  H      576.850      15.012    -978.923
  H      584.997      14.308    -979.956
  H      579.039      14.962    -982.301
  H      581.368      18.040    -982.621
  H      579.915      16.410    -984.470
  H      586.081      16.390    -980.038
  H      577.865      16.538    -983.160
  H      585.276      17.735    -980.794
  H      578.583      19.489    -982.709
  H      577.359      19.253    -980.624
  H      576.277      18.876    -981.988
  P      576.960      17.023    -985.685
  C      574.706      16.960    -984.423
  O      575.763      16.218    -984.981
  O      578.143      15.938    -985.797
  O      576.656      17.654    -987.006
  H      578.162      15.553    -986.700
  H      574.398      17.799    -985.059
  H      575.013      17.354    -983.424
  H      573.854      16.298    -984.265
  H      573.585      18.187    -978.241
  H      574.438      16.750    -977.731
  H      573.956      16.933    -979.400

 3  4  5  6  7  8  9  10  11  12  23  26  30  31  33  0
 6-311+G(2d,p)
 ****
 35  36  37  38 0
 6-311+G(2d,p)
 ****
 1  2  13  14  15  16  17  18  19  20  21  22  24  25  27  28  29 0
 3-21G
 ****
 32  34  39  40  41  42  43  44  45  46  47  48  49 0
 3-21G
 ****


