%nproc=1
%NoSave
%Mem=1900MB
#P OB98/GEN NMR

erre ene a

0 1
  C      -20.248      74.294     -80.566
  O      -20.210      75.191     -79.474
  H      -21.223      74.377     -81.054
  H      -20.115      73.267     -80.215
  H      -19.468      74.546     -81.290
  P      -18.859      75.203     -78.607
  C      -20.237      74.048     -76.736
  O      -19.035      74.059     -77.493
  C      -20.760      72.623     -76.587
  O      -21.045      72.046     -77.882
  C      -19.798      71.668     -75.889
  O      -19.889      71.790     -74.479
  C      -20.295      70.322     -76.396
  O      -21.449      69.872     -75.657
  C      -20.668      70.643     -77.850
  N      -19.526      68.474     -82.263
  C      -20.737      68.588     -81.614
  N      -21.794      67.987     -82.205
  N      -20.900      69.223     -80.483
  C      -19.750      69.744     -79.994
  C      -18.492      69.713     -80.551
  C      -18.334      69.033     -81.819
  O      -17.301      68.955     -82.477
  N      -17.584      70.372     -79.763
  C      -18.282      70.766     -78.715
  N      -19.598      70.394     -78.802
  O      -18.972      76.558     -77.758
  O      -17.593      75.150     -79.392
  H      -21.617      68.937     -75.864
  H      -18.075      76.906     -77.594
  H      -19.468      67.987     -83.140
  H      -17.883      71.318     -77.876
  H      -21.535      70.066     -78.190
  H      -19.536      69.546     -76.290
  H      -21.672      67.230     -82.865
  H      -18.770      71.830     -76.235
  H      -22.682      68.046     -81.723
  H      -21.710      72.676     -76.041
  H      -20.988      74.655     -77.252
  H      -20.044      74.482     -75.749
  P      -18.593      72.318     -73.692
  C      -18.292      69.895     -72.792
  O      -17.685      71.029     -73.400
  O      -19.168      72.696     -72.246
  O      -17.895      73.467     -74.339
  H      -18.537      73.276     -71.777
  H      -17.561      69.124     -72.665
  H      -19.083      69.536     -73.417
  H      -18.689      70.172     -71.838

 6  7  8  9  10  11  12  13  14  15  26  29  33  34 0
 6-311+G(2d,p)
 ****
 36  38  39  40  41 0
 6-311+G(2d,p)
 ****
 1  2  3  4  5  16  17  18  19  20  21  22  23  24  25 0
 3-21G
 ****
 27  28  30  31  32  35  37  42  43  44  45  46  47 0
 3-21G
 ****
 48  49 0
 3-21G
 ****


