%nproc=1
%NoSave
%Mem=1900MB
#P OB98/GEN NMR

erre ene a

0 1
  C     1367.074    -321.490    -292.935
  O     1368.243    -322.293    -292.802
  P     1369.639    -321.610    -292.406
  C     1370.738    -322.218    -294.651
  O     1370.374    -321.168    -293.759
  C     1371.299    -321.632    -295.956
  O     1370.222    -321.139    -296.791
  C     1372.234    -320.444    -295.777
  O     1373.495    -320.815    -295.277
  C     1372.249    -319.861    -297.178
  O     1373.154    -320.588    -298.028
  C     1370.780    -320.094    -297.636
  N     1369.972    -318.893    -297.596
  C     1369.847    -318.201    -298.799
  O     1370.476    -318.573    -299.805
  N     1369.045    -317.091    -298.822
  C     1368.514    -316.641    -297.734
  N     1367.669    -315.585    -297.849
  C     1368.751    -317.266    -296.417
  C     1369.471    -318.376    -296.427
  O     1370.475    -322.417    -291.457
  O     1369.212    -320.209    -291.747
  H     1369.667    -320.130    -290.883
  H     1373.227    -320.092    -298.865
  H     1368.348    -316.799    -295.523
  H     1369.699    -318.901    -295.486
  H     1370.769    -320.503    -298.646
  H     1372.564    -318.799    -297.202
  H     1371.767    -319.714    -295.072
  H     1371.812    -322.443    -296.501
  H     1367.508    -315.197    -298.763
  H     1369.884    -322.824    -294.864
  H     1366.958    -315.370    -297.112
  H     1371.513    -322.831    -294.150
  P     1374.528    -319.657    -294.919
  C     1376.198    -320.659    -296.615
  O     1375.534    -319.510    -296.139
  O     1375.437    -320.277    -293.749
  O     1373.873    -318.364    -294.464
  H     1375.662    -319.586    -293.108
  H     1376.534    -320.489    -297.636
  H     1375.528    -321.538    -296.607
  H     1377.060    -320.884    -295.978
  H     1366.244    -322.110    -293.201
  H     1367.230    -320.756    -293.698
  H     1366.870    -321.001    -292.006

 3  4  5  6  7  8  9  10  11  12  13  24  27  28  29  30  32 0
 6-311+G(2d,p)
 ****
 34  35 0
 6-311+G(2d,p)
 ****
 1  2  14  15  16  17  18  19  20  21  22  23  25  26 0
 3-21G
 ****
 31  33  36  37  38  39  40  41  42  43  44  45  46 0
 3-21G
 ****


