%nproc=1
%NoSave
%Mem=1900MB
#P OB98/GEN NMR

erre ene a

0 1
  C       35.872     127.169     -46.871
  O       34.862     128.164     -46.913
  P       35.112     129.446     -47.846
  C       35.518     130.912     -45.752
  O       36.031     130.454     -46.998
  C       36.090     132.283     -45.400
  O       37.543     132.200     -45.400
  C       35.690     133.404     -46.376
  O       35.344     134.580     -45.629
  C       36.977     133.698     -47.128
  O       37.009     135.028     -47.639
  C       38.008     133.409     -46.036
  N       42.685     135.301     -45.772
  C       41.592     135.541     -44.968
  N       41.754     136.458     -43.985
  N       40.438     134.941     -45.107
  C       40.431     134.024     -46.109
  C       41.451     133.692     -46.970
  C       42.703     134.411     -46.841
  O       43.678     134.306     -47.579
  N       41.066     132.705     -47.843
  C       39.816     132.445     -47.514
  N       39.369     133.251     -46.499
  O       33.679     130.157     -47.863
  O       35.585     129.146     -49.229
  H       37.016     135.630     -46.869
  H       33.377     130.267     -48.786
  H       43.544     135.805     -45.636
  H       39.187     131.706     -48.001
  H       38.001     134.213     -45.285
  H       37.073     132.998     -47.966
  H       42.624     136.930     -43.799
  H       34.869     133.140     -47.052
  H       40.968     136.628     -43.369
  H       35.785     132.536     -44.376
  H       35.789     130.198     -44.970
  H       34.426     130.966     -45.820
  P       33.938     135.261     -45.999
  C       35.206     137.108     -47.330
  O       34.202     136.112     -47.333
  O       33.755     136.373     -44.861
  O       32.794     134.300     -46.048
  H       32.809     136.586     -44.739
  H       35.821     137.074     -46.425
  H       34.734     138.091     -47.398
  H       35.853     136.960     -48.201
  H       35.569     126.381     -46.213
  H       36.784     127.601     -46.514
  H       36.025     126.774     -47.854

 3  4  5  6  7  8  9  10  11  12  23  26  30  31  33  0
 6-311+G(2d,p)
 ****
 35  36  37  38 0
 6-311+G(2d,p)
 ****
 1  2  13  14  15  16  17  18  19  20  21  22  24  25  27  28  29 0
 3-21G
 ****
 32  34  39  40  41  42  43  44  45  46  47  48  49 0
 3-21G
 ****


