%nproc=1
%NoSave
%Mem=1900MB
#P OB98/GEN NMR

erre ene a

0 1
  C       81.823     918.463     185.435
  O       81.056     919.555     185.910
  H       82.060     917.804     186.274
  H       82.759     918.831     185.001
  H       81.258     917.902     184.683
  P       80.459     920.559     184.815
  C       81.595     922.874     185.314
  O       81.572     921.682     184.543
  C       81.685     924.094     184.394
  O       82.969     924.143     183.741
  C       80.691     924.078     183.255
  O       79.359     924.314     183.678
  C       81.259     925.186     182.373
  O       80.908     926.482     182.878
  C       82.778     924.934     182.524
  N       83.357     924.281     181.359
  C       83.928     925.131     180.403
  O       83.919     926.350     180.574
  N       84.447     924.587     179.256
  C       84.435     923.296     179.098
  N       84.967     922.804     177.940
  C       83.875     922.357     180.092
  C       83.356     922.914     181.191
  O       79.349     921.354     185.638
  O       79.955     919.912     183.563
  H       81.356     926.575     183.739
  H       79.685     921.764     186.463
  H       83.894     921.290     179.922
  H       82.928     922.301     181.964
  H       83.318     925.887     182.685
  H       80.886     925.133     181.348
  H       80.761     923.136     182.695
  H       81.578     924.992     185.012
  H       85.319     923.479     177.268
  H       82.417     922.865     186.032
  H       84.981     921.833     177.692
  H       80.663     922.916     185.886
  P       78.128     923.608     182.942
  C       76.587     925.509     182.128
  O       77.655     924.623     181.785
  O       77.040     923.126     183.837
  O       78.836     922.439     182.080
  H       79.491     922.756     181.436
  H       76.358     926.133     181.289
  H       76.882     926.119     182.956
  H       75.722     924.938     182.395

 6  7  8  9  10  11  12  13  14  15  16  26  30  31  32  33  35 0
 6-311+G(2d,p)
 ****
 37  38 0
 6-311+G(2d,p)
 ****
 1  2  3  4  5  17  18  19  20  21  22  23  24  25 0
 3-21G
 ****
 27  28  29  34  36  39  40  41  42  43  44  45  46 0
 3-21G
 ****


