%nproc=1
%NoSave
%Mem=1900MB
#P OB98/GEN NMR

erre ene a

0 1
  C      -86.617    -323.848    -351.961
  O      -86.232    -322.697    -351.207
  P      -84.760    -322.096    -351.381
  C      -85.420    -319.730    -352.198
  O      -84.807    -320.509    -351.175
  C      -85.939    -318.410    -351.620
  O      -87.052    -318.626    -350.721
  C      -84.894    -317.684    -350.780
  O      -83.795    -317.131    -351.468
  C      -85.751    -316.730    -349.956
  O      -86.067    -315.544    -350.684
  C      -87.027    -317.582    -349.725
  N      -87.094    -318.132    -348.371
  C      -87.332    -317.219    -347.350
  O      -87.432    -316.006    -347.538
  N      -87.409    -317.745    -346.089
  C      -87.242    -319.055    -345.751
  O      -87.304    -319.464    -344.599
  C      -86.974    -319.974    -346.870
  C      -86.913    -319.479    -348.107
  O      -84.007    -322.558    -352.581
  O      -84.020    -322.590    -350.039
  H      -86.707    -315.791    -351.377
  H      -83.114    -322.864    -350.285
  H      -87.587    -317.094    -345.333
  H      -86.834    -321.016    -346.641
  H      -86.717    -320.137    -348.948
  H      -87.928    -316.975    -349.883
  H      -85.241    -316.423    -349.038
  H      -84.467    -318.411    -350.072
  H      -86.295    -317.785    -352.442
  H      -86.237    -320.295    -352.649
  H      -84.687    -319.554    -352.996
  P      -82.271    -317.366    -351.020
  C      -81.457    -319.150    -352.714
  O      -81.426    -317.799    -352.314
  O      -82.036    -318.130    -349.762
  O      -81.771    -315.849    -350.798
  H      -81.115    -315.849    -350.072
  H      -80.814    -319.265    -353.596
  H      -82.472    -319.447    -352.978
  H      -81.071    -319.795    -351.920
  H      -87.626    -324.110    -351.721
  H      -85.969    -324.665    -351.720
  H      -86.544    -323.631    -353.006

 3  4  5  6  7  8  9  10  11  12  13  23  28  29  30  31  32 0
 6-311+G(2d,p)
 ****
 33  34 0
 6-311+G(2d,p)
 ****
 1  2  14  15  16  17  18  19  20  21  22  24  25  26  27 0
 3-21G
 ****
 35  36  37  38  39  40  41  42  43  44  45 0
 3-21G
 ****


