%nproc=1
%NoSave
%Mem=1900MB
#P OB98/GEN NMR

erre ene a

0 1
  C     -181.728    -370.692    -265.634
  O     -181.398    -369.328    -265.809
  H     -181.627    -370.974    -264.585
  H     -182.766    -370.843    -265.944
  H     -181.082    -371.317    -266.258
  P     -179.938    -368.881    -265.311
  C     -180.666    -367.572    -263.188
  O     -180.031    -368.732    -263.714
  C     -180.902    -367.734    -261.692
  O     -181.922    -368.723    -261.451
  C     -179.688    -368.202    -260.904
  O     -178.768    -367.146    -260.651
  C     -180.351    -368.684    -259.618
  O     -180.631    -367.556    -258.766
  C     -181.668    -369.290    -260.134
  N     -181.471    -373.734    -257.570
  C     -181.487    -372.447    -257.143
  N     -181.528    -371.320    -257.885
  C     -181.571    -371.610    -259.197
  C     -181.564    -372.869    -259.776
  C     -181.500    -373.968    -258.899
  N     -181.470    -375.274    -259.344
  N     -181.630    -372.775    -261.150
  C     -181.683    -371.480    -261.399
  N     -181.640    -370.736    -260.249
  O     -179.820    -367.363    -265.817
  O     -178.804    -369.714    -265.815
  H     -181.295    -367.856    -258.118
  H     -178.898    -367.188    -266.080
  H     -181.461    -372.309    -256.067
  H     -181.749    -371.044    -262.387
  H     -182.514    -369.011    -259.500
  H     -179.733    -369.378    -259.049
  H     -179.194    -369.049    -261.394
  H     -181.265    -366.771    -261.302
  H     -181.631    -367.432    -263.692
  H     -181.628    -376.011    -258.677
  H     -181.502    -375.439    -260.345
  H     -180.029    -366.705    -263.384
  P     -177.206    -367.519    -260.592
  C     -177.352    -367.898    -258.024
  O     -177.039    -368.456    -259.295
  O     -176.526    -366.142    -260.142
  O     -176.628    -368.032    -261.868
  H     -175.597    -366.117    -260.441
  H     -177.194    -368.633    -257.263
  H     -178.376    -367.588    -258.013
  H     -176.721    -367.053    -257.840

 6  7  8  9  10  11  12  13  14  15  25  28  32  33  34  35 0
 6-311+G(2d,p)
 ****
 36  39  40 0
 6-311+G(2d,p)
 ****
 1  2  3  4  5  16  17  18  19  20  21  22  23  24 0
 3-21G
 ****
 26  27  29  30  31  37  38  41  42  43  44  45  46  47  48 0
 3-21G
 ****


