%nproc=1
%NoSave
%Mem=1900MB
#P OB98/GEN NMR

erre ene a

0 1
  C     -236.591     215.739    -379.970
  O     -235.439     214.913    -379.944
  P     -235.150     213.932    -378.702
  C     -235.869     211.844    -380.049
  O     -236.129     212.684    -378.934
  C     -235.630     210.411    -379.577
  O     -234.292     210.292    -379.059
  C     -236.557     209.952    -378.458
  O     -237.846     209.641    -378.953
  C     -235.764     208.775    -377.898
  O     -235.953     207.612    -378.721
  C     -234.311     209.272    -378.023
  N     -233.779     209.795    -376.768
  C     -233.582     208.860    -375.746
  O     -233.842     207.667    -375.911
  N     -233.060     209.298    -374.555
  C     -232.781     210.553    -374.386
  N     -232.202     210.919    -373.209
  C     -233.025     211.578    -375.419
  C     -233.516     211.128    -376.577
  O     -235.260     214.569    -377.361
  O     -233.717     213.306    -379.013
  H     -236.914     207.428    -378.733
  H     -232.965     213.845    -378.660
  H     -232.793     212.617    -375.226
  H     -233.707     211.813    -377.392
  H     -233.662     208.465    -378.381
  H     -236.047     208.508    -376.870
  H     -236.646     210.732    -377.691
  H     -235.723     209.739    -380.448
  H     -231.895     210.159    -372.609
  H     -234.972     212.210    -380.557
  H     -231.704     211.790    -373.113
  H     -236.715     211.891    -380.747
  P     -239.092     209.817    -377.957
  C     -239.487     212.276    -378.684
  O     -239.168     211.390    -377.626
  O     -238.567     209.151    -376.599
  O     -240.363     209.201    -378.436
  H     -238.937     208.256    -376.495
  H     -239.730     213.251    -378.261
  H     -240.349     211.912    -379.251
  H     -238.627     212.390    -379.351
  H     -236.599     216.311    -380.874
  H     -236.574     216.401    -379.129
  H     -237.469     215.129    -379.926

 3  4  5  6  7  8  9  10  11  12  13  23  27  28  29  30  32 0
 6-311+G(2d,p)
 ****
 34  35 0
 6-311+G(2d,p)
 ****
 1  2  14  15  16  17  18  19  20  21  22  24  25  26 0
 3-21G
 ****
 31  33  36  37  38  39  40  41  42  43  44  45  46 0
 3-21G
 ****


