%nproc=1
%NoSave
%Mem=1900MB
#P OB98/GEN NMR

erre ene a

0 1
  C      559.373    1124.187    -480.968
  O      559.179    1122.932    -481.584
  H      559.835    1124.868    -481.687
  H      560.050    1124.077    -480.110
  H      558.420    1124.606    -480.638
  P      558.354    1121.837    -480.747
  C      556.633    1121.343    -482.667
  O      557.678    1120.873    -481.840
  C      556.851    1120.899    -484.116
  O      557.753    1121.837    -484.756
  C      557.449    1119.496    -484.249
  O      556.902    1118.867    -485.401
  C      558.935    1119.768    -484.487
  O      559.583    1118.686    -485.148
  C      558.867    1121.082    -485.295
  N      560.113    1121.843    -485.241
  C      561.093    1121.516    -486.186
  O      560.883    1120.620    -487.004
  N      562.290    1122.178    -486.154
  C      562.526    1123.039    -485.218
  N      563.742    1123.651    -485.222
  C      561.541    1123.388    -484.171
  C      560.363    1122.756    -484.244
  O      557.132    1122.703    -480.192
  O      559.150    1121.141    -479.689
  H      560.467    1119.003    -485.449
  H      556.735    1123.285    -480.863
  H      561.781    1124.104    -483.396
  H      559.574    1122.943    -483.522
  H      558.638    1120.866    -486.344
  H      559.439    1119.944    -483.533
  H      557.273    1118.881    -483.367
  H      555.890    1120.964    -484.649
  H      564.400    1123.377    -485.944
  H      556.573    1122.437    -482.631
  H      564.058    1124.298    -484.508
  H      555.686    1120.939    -482.290
  P      556.951    1117.269    -485.545
  C      554.438    1116.719    -485.381
  O      555.590    1116.751    -486.209
  O      557.397    1116.543    -484.328
  O      558.023    1117.067    -486.731
  H      558.589    1116.308    -486.491
  H      553.604    1116.356    -485.944
  H      554.226    1117.706    -485.026
  H      554.615    1116.071    -484.548

 6  7  8  9  10  11  12  13  14  15  16  26  30  31  32  33  35 0
 6-311+G(2d,p)
 ****
 37  38 0
 6-311+G(2d,p)
 ****
 1  2  3  4  5  17  18  19  20  21  22  23  24  25 0
 3-21G
 ****
 27  28  29  34  36  39  40  41  42  43  44  45  46 0
 3-21G
 ****


