%nproc=1
%NoSave
%Mem=1900MB
#P OB98/GEN NMR

erre ene a

0 1
  C     -382.235    -487.406      59.173
  O     -382.737    -488.217      60.217
  H     -382.955    -486.607      58.975
  H     -382.115    -488.000      58.265
  H     -381.280    -486.954      59.451
  P     -381.766    -489.299      60.890
  C     -382.523    -489.045      63.343
  O     -382.534    -489.863      62.182
  C     -383.770    -488.159      63.393
  O     -384.946    -488.999      63.183
  C     -383.966    -487.424      64.734
  O     -384.607    -486.175      64.450
  C     -384.911    -488.373      65.450
  O     -385.496    -487.776      66.578
  C     -385.836    -488.745      64.289
  N     -386.685    -489.897      64.566
  C     -387.754    -489.709      65.434
  O     -388.037    -488.630      65.952
  N     -388.507    -490.823      65.700
  C     -388.291    -492.074      65.200
  O     -389.009    -493.032      65.457
  C     -387.126    -492.217      64.313
  C     -386.388    -491.137      64.041
  O     -380.365    -488.852      61.133
  O     -381.820    -490.538      59.875
  H     -381.046    -490.509      59.283
  H     -386.201    -488.351      66.944
  H     -389.289    -490.703      66.327
  H     -386.916    -493.201      63.919
  H     -385.521    -491.205      63.392
  H     -386.465    -487.894      64.007
  H     -384.367    -489.252      65.809
  H     -383.026    -487.243      65.263
  H     -383.736    -487.450      62.556
  H     -381.625    -488.420      63.312
  H     -382.482    -489.682      64.233
  P     -383.833    -484.768      64.444
  C     -385.481    -483.386      63.021
  O     -384.898    -483.575      64.303
  O     -382.728    -484.698      63.438
  O     -383.253    -484.593      65.926
  H     -382.386    -484.146      65.881
  H     -386.168    -482.567      63.059
  H     -386.002    -484.275      62.731
  H     -384.712    -483.174      62.307

 6  7  8  9  10  11  12  13  14  15  16  27  31  32  33  34  35 0
 6-311+G(2d,p)
 ****
 36  37 0
 6-311+G(2d,p)
 ****
 1  2  3  4  5  17  18  19  20  21  22  23  24  25 0
 3-21G
 ****
 26  28  29  30  38  39  40  41  42  43  44  45 0
 3-21G
 ****


