%nproc=1
%NoSave
%Mem=1900MB
#P OB98/GEN NMR

erre ene a

0 1
  C      992.063      22.222    -456.354
  O      990.649      21.997    -456.430
  P      989.859      21.914    -457.827
  C      989.169      24.333    -458.408
  O      990.089      23.279    -458.661
  C      989.464      25.562    -459.262
  O      989.477      25.212    -460.662
  C      988.453      26.698    -459.165
  O      988.631      27.413    -457.949
  C      988.765      27.478    -460.414
  O      989.885      28.366    -460.226
  C      989.105      26.367    -461.435
  N      988.004      26.073    -462.320
  C      987.701      27.033    -463.301
  O      988.316      28.108    -463.316
  N      986.704      26.782    -464.207
  C      986.013      25.681    -464.099
  N      985.040      25.493    -465.031
  C      986.238      24.686    -463.049
  C      987.239      24.938    -462.200
  O      988.427      21.515    -457.682
  O      990.650      20.816    -458.700
  H      989.950      28.886    -461.077
  H      990.026      20.369    -459.274
  H      985.613      23.806    -462.982
  H      987.473      24.245    -461.399
  H      989.984      26.645    -462.014
  H      987.909      28.112    -460.734
  H      987.439      26.273    -459.215
  H      990.483      25.915    -458.995
  H      984.912      26.210    -465.742
  H      989.238      24.615    -457.355
  H      984.440      24.681    -465.041
  H      988.159      23.967    -458.591
  P      987.556      27.238    -456.753
  C      985.977      29.067    -457.585
  O      986.151      27.691    -457.307
  O      987.966      27.831    -455.455
  O      987.410      25.641    -456.614
  H      987.227      25.429    -455.695
  H      985.163      29.185    -458.314
  H      986.898      29.486    -458.017
  H      985.713      29.593    -456.671
  H      992.367      22.239    -455.328
  H      992.300      23.160    -456.811
  H      992.577      21.436    -456.866

 3  4  5  6  7  8  9  10  11  12  13  23  27  28  29  30  32 0
 6-311+G(2d,p)
 ****
 34  35 0
 6-311+G(2d,p)
 ****
 1  2  14  15  16  17  18  19  20  21  22  24  25  26 0
 3-21G
 ****
 31  33  36  37  38  39  40  41  42  43  44  45  46 0
 3-21G
 ****


