%nproc=1
%NoSave
%Mem=1900MB
#P OB98/GEN NMR

erre ene a

0 1
  C      -31.354      -5.048    -506.420
  O      -31.521      -5.217    -507.814
  H      -30.767      -5.889    -506.034
  H      -32.322      -5.032    -505.914
  H      -30.812      -4.120    -506.218
  P      -32.446      -4.177    -508.605
  C      -34.441      -5.777    -508.214
  O      -33.954      -4.446    -508.129
  C      -35.938      -5.835    -507.874
  O      -36.121      -5.425    -506.488
  C      -36.808      -4.901    -508.742
  O      -38.098      -5.509    -508.856
  C      -36.870      -3.661    -507.875
  O      -37.879      -2.780    -508.309
  C      -37.025      -4.298    -506.491
  N      -36.735      -3.364    -505.411
  C      -37.631      -2.309    -505.251
  O      -38.596      -2.188    -506.008
  N      -37.401      -1.392    -504.258
  C      -36.332      -1.484    -503.530
  N      -36.148      -0.537    -502.579
  C      -35.321      -2.556    -503.707
  C      -35.590      -3.458    -504.652
  O      -32.258      -4.134    -510.084
  O      -32.103      -2.766    -507.933
  H      -38.771      -3.183    -508.197
  H      -31.535      -2.245    -508.529
  H      -34.438      -2.578    -503.086
  H      -34.915      -4.280    -504.856
  H      -38.042      -4.687    -506.353
  H      -35.927      -3.103    -507.932
  H      -36.381      -4.726    -509.735
  H      -36.276      -6.872    -507.951
  H      -36.857       0.187    -502.498
  H      -33.875      -6.380    -507.497
  H      -35.346      -0.494    -501.963
  H      -34.277      -6.174    -509.218
  P      -38.574      -6.314    -510.156
  C      -40.212      -4.717    -511.348
  O      -38.904      -5.282    -511.338
  O      -39.660      -7.305    -509.903
  O      -37.254      -7.064    -510.678
  H      -37.511      -7.909    -511.112
  H      -40.306      -4.050    -512.179
  H      -40.375      -4.178    -510.438
  H      -40.938      -5.499    -511.434

 6  7  8  9  10  11  12  13  14  15  16  26  30  31  32  33  35 0
 6-311+G(2d,p)
 ****
 37  38 0
 6-311+G(2d,p)
 ****
 1  2  3  4  5  17  18  19  20  21  22  23  24  25 0
 3-21G
 ****
 27  28  29  34  36  39  40  41  42  43  44  45  46 0
 3-21G
 ****


