%nproc=1
%NoSave
%Mem=1900MB
#P OB98/GEN NMR

erre ene a

0 1
  C      256.549    -184.132     118.045
  O      256.856    -182.748     118.065
  H      255.630    -184.279     117.472
  H      256.390    -184.509     119.061
  H      257.357    -184.692     117.566
  P      258.080    -182.257     118.975
  C      257.224    -180.420     120.590
  O      257.427    -181.814     120.372
  C      256.053    -179.923     119.748
  O      255.124    -180.999     119.499
  C      255.245    -178.828     120.431
  O      255.927    -177.588     120.377
  C      253.951    -178.895     119.647
  O      254.062    -178.214     118.393
  C      253.797    -180.420     119.437
  N      252.906    -181.043     120.411
  C      251.757    -181.651     119.894
  O      251.542    -181.651     118.681
  N      250.872    -182.225     120.771
  C      251.113    -182.211     122.046
  N      250.193    -182.795     122.857
  C      252.320    -181.589     122.630
  C      253.164    -181.030     121.764
  O      259.003    -181.239     118.374
  O      258.845    -183.615     119.345
  H      254.352    -177.303     118.611
  H      259.524    -183.818     118.676
  H      252.482    -181.609     123.699
  H      254.074    -180.555     122.112
  H      253.408    -180.633     118.431
  H      253.122    -178.446     120.198
  H      255.031    -179.108     121.469
  H      256.443    -179.582     118.780
  H      249.371    -183.197     122.414
  H      258.147    -179.909     120.294
  H      250.315    -182.921     123.853
  H      257.041    -180.220     121.652
  P      255.429    -176.344     121.257
  C      254.381    -174.634     119.633
  O      254.148    -175.759     120.478
  O      256.481    -175.343     121.602
  O      254.771    -177.046     122.538
  H      255.463    -177.406     123.151
  H      253.462    -174.337     119.173
  H      255.090    -174.897     118.876
  H      254.766    -173.824     120.216

 6  7  8  9  10  11  12  13  14  15  16  26  30  31  32  33  35 0
 6-311+G(2d,p)
 ****
 37  38 0
 6-311+G(2d,p)
 ****
 1  2  3  4  5  17  18  19  20  21  22  23  24  25 0
 3-21G
 ****
 27  28  29  34  36  39  40  41  42  43  44  45  46 0
 3-21G
 ****


