%nproc=1
%NoSave
%Mem=1900MB
#P OB98/GEN NMR

erre ene a

0 1
  C       92.941       1.842      -9.525
  O       93.091       1.752     -10.927
  P       92.016       2.392     -11.929
  C       90.724       0.182     -11.691
  O       90.645       1.598     -11.663
  C       89.466      -0.435     -12.304
  O       88.326      -0.175     -11.438
  C       89.113       0.090     -13.702
  O       88.526      -1.009     -14.407
  C       88.069       1.147     -13.401
  O       87.276       1.474     -14.535
  C       87.321       0.490     -12.234
  N       86.556       1.460     -11.460
  C       85.192       1.556     -11.744
  O       84.702       0.900     -12.666
  N       84.424       2.432     -11.020
  C       84.991       3.218     -10.159
  N       84.180       4.062      -9.467
  C       86.446       3.238      -9.918
  C       87.160       2.333     -10.585
  O       92.438       2.455     -13.357
  O       91.712       3.828     -11.290
  H       86.657       0.730     -14.702
  H       92.449       4.457     -11.492
  H       86.880       3.949      -9.232
  H       88.232       2.269     -10.473
  H       86.632      -0.280     -12.603
  H       88.564       2.067     -13.065
  H       89.970       0.488     -14.250
  H       89.605      -1.522     -12.337
  H       83.186       4.006      -9.653
  H       90.822      -0.172     -10.661
  H       84.507       4.654      -8.718
  H       91.618      -0.133     -12.239
  P       88.833      -1.261     -15.960
  C       86.503      -0.459     -16.653
  O       87.899      -0.262     -16.790
  O       88.766      -2.690     -16.393
  O       90.301      -0.655     -16.178
  H       90.667      -0.986     -17.019
  H       85.980       0.427     -17.022
  H       86.231      -0.625     -15.607
  H       86.197      -1.326     -17.248
  H       93.763       1.352      -9.046
  H       92.026       1.370      -9.233
  H       92.920       2.871      -9.234

 3  4  5  6  7  8  9  10  11  12  13  23  27  28  29  30  32 0
 6-311+G(2d,p)
 ****
 34  35 0
 6-311+G(2d,p)
 ****
 1  2  14  15  16  17  18  19  20  21  22  24  25  26 0
 3-21G
 ****
 31  33  36  37  38  39  40  41  42  43  44  45  46 0
 3-21G
 ****


