%nproc=1
%NoSave
%Mem=1900MB
#P OB98/GEN NMR

erre ene a

0 1
  C      993.579     501.724    -142.276
  O      994.028     502.557    -143.328
  H      993.058     500.862    -142.701
  H      992.881     502.281    -141.635
  H      994.425     501.372    -141.679
  P      995.011     503.753    -142.921
  C      994.705     506.335    -142.552
  O      994.102     505.050    -142.636
  C      993.980     507.311    -143.490
  O      994.025     506.847    -144.849
  C      992.484     507.462    -143.202
  O      992.225     508.200    -142.033
  C      992.032     508.168    -144.473
  O      992.229     509.577    -144.399
  C      992.960     507.546    -145.545
  N      992.237     506.662    -146.457
  C      991.374     507.316    -147.376
  O      991.307     508.542    -147.358
  N      990.614     506.550    -148.208
  C      990.677     505.251    -148.120
  N      989.862     504.556    -148.969
  C      991.556     504.536    -147.185
  C      992.309     505.294    -146.391
  O      995.715     504.108    -144.315
  O      995.969     503.432    -141.817
  H      992.077     509.923    -145.308
  H      995.096     504.226    -145.043
  H      991.570     503.456    -147.180
  H      992.981     504.845    -145.660
  H      993.433     508.335    -146.144
  H      990.974     508.003    -144.666
  H      992.011     506.474    -143.168
  H      994.492     508.284    -143.430
  H      989.230     505.101    -149.563
  H      995.764     506.277    -142.814
  H      989.757     503.540    -148.951
  H      994.637     506.669    -141.516
  P      990.777     508.226    -141.363
  C      988.866     509.942    -141.117
  O      990.132     509.663    -141.708
  O      990.722     507.871    -139.915
  O      989.927     507.242    -142.317
  H      989.886     507.512    -143.245
  H      988.540     510.917    -141.415
  H      988.954     509.906    -140.051
  H      988.153     509.213    -141.441

 6  7  8  9  10  11  12  13  14  15  16  26  30  31  32  33  35 0
 6-311+G(2d,p)
 ****
 37  38 0
 6-311+G(2d,p)
 ****
 1  2  3  4  5  17  18  19  20  21  22  23  24  25 0
 3-21G
 ****
 27  28  29  34  36  39  40  41  42  43  44  45  46 0
 3-21G
 ****


