%nproc=1
%NoSave
%Mem=1900MB
#P OB98/GEN NMR

erre ene a

0 1
  C      332.715    -114.360     499.783
  O      331.570    -114.916     500.396
  H      332.793    -114.750     498.759
  H      333.616    -114.646     500.338
  H      332.636    -113.270     499.739
  P      331.169    -114.343     501.838
  C      333.328    -115.276     503.005
  O      331.910    -115.259     502.935
  C      333.796    -116.459     503.851
  O      333.372    -116.309     505.226
  C      333.198    -117.790     503.426
  O      333.730    -118.262     502.206
  C      333.566    -118.650     504.633
  O      334.937    -119.061     504.574
  C      333.343    -117.647     505.799
  N      332.100    -117.897     506.516
  C      331.679    -116.868     507.382
  O      332.341    -115.843     507.485
  N      330.538    -117.064     508.109
  C      329.860    -118.156     507.977
  N      328.732    -118.292     508.740
  C      330.247    -119.247     507.063
  C      331.370    -119.050     506.370
  O      329.636    -114.792     501.978
  O      331.404    -112.878     502.028
  H      335.471    -118.242     504.584
  H      329.498    -115.740     501.835
  H      329.640    -120.139     506.971
  H      331.724    -119.804     505.686
  H      334.171    -117.705     506.511
  H      332.965    -119.561     504.687
  H      332.111    -117.723     503.387
  H      334.891    -116.477     503.831
  H      328.511    -117.530     509.372
  H      333.717    -114.332     503.400
  H      328.146    -119.108     508.747
  H      333.706    -115.378     501.973
  P      332.882    -118.140     500.849
  C      331.881    -120.500     501.081
  O      332.703    -119.629     500.295
  O      333.428    -117.163     499.850
  O      331.404    -117.784     501.367
  H      331.003    -118.454     501.953
  H      331.834    -121.462     500.616
  H      330.895    -120.091     501.153
  H      332.300    -120.597     502.061

 6  7  8  9  10  11  12  13  14  15  16  26  30  31  32  33  35 0
 6-311+G(2d,p)
 ****
 37  38 0
 6-311+G(2d,p)
 ****
 1  2  3  4  5  17  18  19  20  21  22  23  24  25 0
 3-21G
 ****
 27  28  29  34  36  39  40  41  42  43  44  45  46 0
 3-21G
 ****


