%nproc=1
%NoSave
%Mem=1900MB
#P OB98/GEN NMR

erre ene a

0 1
  C      157.114     -26.931     -50.090
  O      156.720     -25.574     -50.172
  P      157.088     -24.701     -51.463
  C      159.199     -23.946     -52.721
  O      158.685     -24.597     -51.564
  C      160.125     -22.799     -52.320
  O      159.366     -21.677     -51.813
  C      161.101     -23.148     -51.208
  O      162.141     -23.997     -51.659
  C      161.548     -21.759     -50.763
  O      162.558     -21.243     -51.643
  C      160.241     -20.952     -50.912
  N      159.595     -20.697     -49.633
  C      160.326     -19.935     -48.715
  O      161.479     -19.584     -48.973
  N      159.729     -19.596     -47.523
  C      158.564     -20.080     -47.225
  N      157.997     -19.662     -46.058
  C      157.833     -21.021     -48.100
  C      158.390     -21.264     -49.286
  O      156.366     -23.399     -51.578
  O      156.721     -25.660     -52.695
  H      156.167     -25.165     -53.328
  H      163.114     -20.644     -51.104
  H      156.896     -21.449     -47.774
  H      157.912     -21.926     -50.002
  H      160.443     -19.991     -51.404
  H      161.967     -21.760     -49.752
  H      160.562     -23.635     -50.385
  H      160.667     -22.470     -53.218
  H      158.521     -19.003     -45.495
  H      158.359     -23.553     -53.302
  H      156.996     -19.711     -45.891
  H      159.735     -24.676     -53.337
  P      162.561     -25.205     -50.690
  C      163.301     -25.357     -48.213
  O      163.217     -24.561     -49.379
  O      163.809     -25.870     -51.453
  O      161.483     -26.207     -50.438
  H      163.790     -26.836     -51.327
  H      164.053     -24.928     -47.546
  H      163.583     -26.388     -48.451
  H      162.335     -25.354     -47.697
  H      156.780     -27.344     -49.161
  H      158.180     -26.997     -50.147
  H      156.679     -27.478     -50.900

 3  4  5  6  7  8  9  10  11  12  13  24  27  28  29  30  32 0
 6-311+G(2d,p)
 ****
 34  35 0
 6-311+G(2d,p)
 ****
 1  2  14  15  16  17  18  19  20  21  22  23  25  26 0
 3-21G
 ****
 31  33  36  37  38  39  40  41  42  43  44  45  46 0
 3-21G
 ****


