%nproc=1
%NoSave
%Mem=1900MB
#P OB98/GEN NMR

erre ene a

0 1
  C      214.251    -109.556     -83.983
  O      214.359    -110.596     -83.026
  P      213.585    -110.409     -81.631
  C      213.523    -108.503     -79.863
  O      214.236    -109.125     -80.923
  C      214.336    -107.346     -79.288
  O      214.711    -106.419     -80.327
  C      213.591    -106.511     -78.256
  O      213.598    -107.109     -76.970
  C      214.421    -105.239     -78.255
  O      215.602    -105.422     -77.452
  C      214.798    -105.100     -79.735
  N      213.276    -100.290     -80.118
  C      214.326    -100.829     -79.402
  N      215.032     -99.973     -78.634
  N      214.655    -102.093     -79.437
  C      213.855    -102.833     -80.243
  C      212.788    -102.412     -81.003
  C      212.425    -101.013     -80.945
  O      211.476    -100.486     -81.514
  N      212.227    -103.451     -81.696
  C      212.951    -104.500     -81.361
  N      213.923    -104.185     -80.449
  O      214.123    -111.628     -80.745
  O      212.099    -110.403     -81.739
  H      216.165    -106.066     -77.925
  H      213.529    -111.775     -79.984
  H      213.058     -99.310     -80.053
  H      212.797    -105.504     -81.738
  H      215.826    -104.751     -79.864
  H      213.884    -104.381     -77.839
  H      214.789     -99.000     -78.515
  H      212.571    -106.280     -78.590
  H      215.767    -100.351     -78.049
  H      215.256    -107.761     -78.856
  H      213.328    -109.238     -79.079
  H      212.562    -108.139     -80.240
  P      212.490    -106.593     -75.927
  C      211.797    -104.109     -75.618
  O      212.847    -105.057     -75.653
  O      212.903    -107.333     -74.570
  O      211.083    -106.885     -76.327
  H      212.124    -107.444     -73.993
  H      212.174    -103.187     -75.164
  H      210.959    -104.474     -75.019
  H      211.460    -103.890     -76.633
  H      214.813    -109.815     -84.856
  H      214.635    -108.648     -83.568
  H      213.223    -109.420     -84.248

 3  4  5  6  7  8  9  10  11  12  23  26  30  31 0
 6-311+G(2d,p)
 ****
 33  35  36  37  38 0
 6-311+G(2d,p)
 ****
 1  2  13  14  15  16  17  18  19  20  21  22  24  25 0
 3-21G
 ****
 27  28  29  32  34  39  40  41  42  43  44  45  46  47  48  49 0
 3-21G
 ****


