%nproc=1
%NoSave
%Mem=1900MB
#P OB98/GEN NMR

erre ene a

0 1
  C       76.715      19.887      81.680
  O       76.376      20.975      80.843
  H       75.925      19.757      82.425
  H       77.658      20.085      82.197
  H       76.801      18.971      81.090
  P       77.469      21.394      79.743
  C       78.430      23.070      81.497
  O       78.679      21.981      80.622
  C       79.665      23.960      81.575
  O       80.603      23.445      82.545
  C       80.444      24.060      80.269
  O       79.852      24.952      79.339
  C       81.774      24.581      80.784
  O       81.657      25.982      81.091
  C       81.944      23.743      82.071
  N       82.700      22.508      81.857
  C       84.095      22.618      81.851
  O       84.638      23.710      82.010
  N       84.847      21.488      81.631
  C       84.260      20.347      81.446
  N       85.053      19.264      81.219
  C       82.795      20.183      81.461
  C       82.086      21.289      81.668
  O       76.850      22.713      79.079
  O       77.854      20.335      78.765
  H       82.503      26.256      81.489
  H       77.511      23.122      78.470
  H       82.351      19.213      81.289
  H       81.002      21.246      81.690
  H       82.444      24.326      82.855
  H       82.584      24.476      80.060
  H       80.605      23.075      79.818
  H       79.345      24.951      81.926
  H       86.050      19.418      81.152
  H       78.188      22.669      82.487
  H       84.687      18.381      80.887
  H       77.581      23.658      81.132
  P       79.933      24.567      77.782
  C       82.264      25.692      77.568
  O       81.488      24.514      77.393
  O       79.417      25.893      77.055
  O       79.134      23.363      77.387
  H       78.864      25.679      76.280
  H       83.273      25.502      77.268
  H       82.247      25.981      78.598
  H       81.856      26.480      76.970

 6  7  8  9  10  11  12  13  14  15  16  26  30  31  32  33  35 0
 6-311+G(2d,p)
 ****
 37  38 0
 6-311+G(2d,p)
 ****
 1  2  3  4  5  17  18  19  20  21  22  23  24  25 0
 3-21G
 ****
 27  28  29  34  36  39  40  41  42  43  44  45  46 0
 3-21G
 ****


