%nproc=1
%NoSave
%Mem=1900MB
#P OB98/GEN NMR

erre ene a

0 1
  C       48.280     -11.341    -448.931
  O       48.046     -12.642    -449.445
  P       47.471     -13.748    -448.440
  C       44.944     -13.108    -448.572
  O       46.130     -13.151    -447.791
  C       44.097     -14.351    -448.299
  O       44.667     -15.501    -448.969
  C       44.029     -14.727    -446.822
  O       43.102     -13.916    -446.123
  C       43.615     -16.193    -446.897
  O       42.195     -16.317    -447.055
  C       44.348     -16.664    -448.173
  N       45.538     -17.453    -447.875
  C       45.511     -18.780    -448.301
  O       44.542     -19.278    -448.875
  N       46.619     -19.525    -448.011
  C       47.708     -19.105    -447.300
  O       48.646     -19.835    -447.017
  C       47.669     -17.702    -446.849
  C       46.604     -16.958    -447.147
  O       48.515     -13.745    -447.226
  O       47.314     -15.110    -449.033
  H       41.902     -15.551    -447.585
  H       48.617     -14.651    -446.874
  H       46.633     -20.481    -448.330
  H       48.515     -17.334    -446.280
  H       46.550     -15.926    -446.812
  H       43.678     -17.273    -448.790
  H       43.888     -16.745    -445.998
  H       45.029     -14.660    -446.372
  H       43.091     -14.183    -448.701
  H       45.210     -13.065    -449.635
  H       44.384     -12.198    -448.326
  P       43.467     -13.543    -444.603
  C       43.581     -10.978    -445.103
  O       44.255     -12.149    -444.697
  O       44.587     -14.639    -444.291
  O       42.282     -13.577    -443.691
  H       45.109     -14.861    -445.071
  H       42.548     -10.968    -444.745
  H       43.587     -10.917    -446.194
  H       44.108     -10.106    -444.697
  H       48.661     -10.713    -449.709
  H       48.993     -11.395    -448.135
  H       47.363     -10.934    -448.561

 3  4  5  6  7  8  9  10  11  12  13  23  28  29  30  31  32 0
 6-311+G(2d,p)
 ****
 33  34 0
 6-311+G(2d,p)
 ****
 1  2  14  15  16  17  18  19  20  21  22  24  25  26 0
 3-21G
 ****
 27  35  36  37  38  39  40  41  42  43  44  45 0
 3-21G
 ****


