%nproc=1
%NoSave
%Mem=1900MB
#P OB98/GEN NMR

erre ene a

0 1
  C      103.869      67.663     507.406
  O      103.700      66.561     506.518
  P      103.524      66.859     504.954
  C      101.578      65.099     504.610
  O      102.839      65.607     504.237
  C      101.122      64.063     503.567
  O      100.982      64.684     502.272
  C      102.098      62.903     503.404
  O      101.857      61.868     504.343
  C      101.852      62.486     501.969
  O      100.644      61.706     501.874
  C      101.662      63.859     501.284
  N      102.869      64.577     500.821
  C      103.464      64.226     499.612
  O      103.056      63.332     498.873
  N      104.566      64.954     499.249
  C      105.027      66.080     499.864
  O      105.984      66.728     499.459
  C      104.274      66.498     501.051
  C      103.263      65.739     501.473
  O      105.020      66.849     504.394
  O      102.818      68.142     504.645
  H      100.707      60.996     502.537
  H      105.264      67.735     504.063
  H      105.052      64.667     498.412
  H      104.576      67.413     501.543
  H      102.698      66.042     502.353
  H      100.997      63.772     500.417
  H      102.652      61.849     501.598
  H      103.129      63.262     503.477
  H      100.137      63.682     503.869
  H      100.840      65.901     504.684
  H      101.646      64.636     505.598
  P      103.018      61.422     505.351
  C      101.777      59.181     505.188
  O      102.500      60.060     506.028
  O      103.506      62.467     506.294
  O      104.181      60.899     504.375
  H      104.844      61.611     504.215
  H      101.623      58.238     505.717
  H      102.333      58.988     504.267
  H      100.802      59.615     504.950
  H      103.972      67.301     508.408
  H      103.015      68.305     507.345
  H      104.747      68.210     507.132

 3  4  5  6  7  8  9  10  11  12  13  23  28  29  30  31  32 0
 6-311+G(2d,p)
 ****
 33  34 0
 6-311+G(2d,p)
 ****
 1  2  14  15  16  17  18  19  20  21  22  24  25  26  27 0
 3-21G
 ****
 35  36  37  38  39  40  41  42  43  44  45 0
 3-21G
 ****


