%nproc=1
%NoSave
%Mem=1900MB
#P OB98/GEN NMR

erre ene a

0 1
  C     -228.186     -91.965     -48.839
  O     -227.518     -90.758     -49.163
  P     -225.978     -90.876     -49.604
  C     -223.730     -91.247     -48.326
  O     -225.136     -91.063     -48.256
  C     -223.261     -92.084     -47.135
  O     -223.876     -93.390     -47.167
  C     -221.758     -92.323     -47.093
  O     -221.097     -91.203     -46.532
  C     -221.675     -93.580     -46.235
  O     -221.771     -93.255     -44.834
  C     -222.906     -94.369     -46.703
  N     -222.171     -99.265     -47.720
  C     -222.260     -98.615     -46.507
  N     -222.185     -99.391     -45.401
  N     -222.412     -97.322     -46.381
  C     -222.456     -96.672     -47.569
  C     -222.364     -97.201     -48.835
  C     -222.249     -98.638     -48.957
  O     -222.268     -99.271     -50.008
  N     -222.427     -96.226     -49.794
  C     -222.589     -95.113     -49.109
  N     -222.632     -95.331     -47.756
  O     -225.625     -89.392     -50.084
  O     -225.694     -91.902     -50.656
  H     -220.973     -92.764     -44.563
  H     -225.673     -89.323     -51.057
  H     -222.073    -100.264     -47.754
  H     -222.701     -94.132     -49.543
  H     -223.378     -94.922     -45.882
  H     -220.726     -94.110     -46.369
  H     -222.045    -100.386     -45.418
  H     -221.376     -92.537     -48.098
  H     -222.244     -98.927     -44.502
  H     -223.600     -91.582     -46.218
  H     -223.240     -90.270     -48.293
  H     -223.479     -91.741     -49.271
  P     -219.622     -90.868     -47.075
  C     -217.382     -92.175     -47.028
  O     -218.619     -91.909     -46.392
  O     -219.278     -89.474     -46.363
  O     -219.523     -90.757     -48.560
  H     -218.755     -88.921     -46.971
  H     -216.644     -92.433     -46.265
  H     -217.022     -91.310     -47.593
  H     -217.503     -93.022     -47.706
  H     -229.197     -91.750     -48.564
  H     -227.687     -92.440     -48.020
  H     -228.178     -92.616     -49.688

 3  4  5  6  7  8  9  10  11  12  23  26  30  31 0
 6-311+G(2d,p)
 ****
 33  35  36  37  38 0
 6-311+G(2d,p)
 ****
 1  2  13  14  15  16  17  18  19  20  21  22  24  25 0
 3-21G
 ****
 27  28  29  32  34  39  40  41  42  43  44  45  46  47  48  49 0
 3-21G
 ****


