%nproc=1
%NoSave
%Mem=1900MB
#P OB98/GEN NMR

erre ene a

0 1
  C      116.883     161.577     -72.878
  O      116.777     162.654     -73.788
  H      117.895     161.570     -72.460
  H      116.708     160.628     -73.394
  H      116.165     161.698     -72.062
  P      115.365     162.822     -74.533
  C      115.785     162.355     -77.051
  O      115.401     161.823     -75.791
  C      117.273     162.118     -77.296
  O      117.641     160.766     -76.945
  C      117.714     162.327     -78.740
  O      117.942     163.700     -79.016
  C      118.989     161.499     -78.786
  O      120.109     162.219     -78.229
  C      118.621     160.296     -77.908
  N      119.674     156.812     -81.413
  C      120.479     157.781     -80.848
  N      121.740     157.867     -81.329
  N      120.085     158.595     -79.906
  C      118.792     158.415     -79.550
  C      117.897     157.481     -80.023
  C      118.358     156.564     -81.043
  O      117.714     155.643     -81.537
  N      116.681     157.601     -79.399
  C      116.828     158.625     -78.583
  N      118.087     159.164     -78.649
  O      115.471     164.270     -75.212
  O      114.161     162.712     -73.657
  H      120.863     161.615     -78.135
  H      114.580     164.666     -75.258
  H      120.041     156.202     -82.122
  H      116.058     159.012     -77.928
  H      119.481     159.921     -77.340
  H      119.268     161.237     -79.810
  H      121.984     157.514     -82.245
  H      116.979     161.900     -79.437
  H      122.332     158.589     -80.935
  H      117.829     162.789     -76.626
  H      115.589     163.433     -77.056
  H      115.194     161.880     -77.840
  P      118.253     164.115     -80.535
  C      120.760     164.701     -80.920
  O      119.772     163.683     -80.820
  O      118.333     165.713     -80.470
  O      117.248     163.642     -81.528
  H      118.250     166.088     -81.368
  H      121.714     164.255     -81.110
  H      120.800     165.251     -80.003
  H      120.510     165.364     -81.722

 6  7  8  9  10  11  12  13  14  15  26  29  33  34 0
 6-311+G(2d,p)
 ****
 36  38  39  40  41 0
 6-311+G(2d,p)
 ****
 1  2  3  4  5  16  17  18  19  20  21  22  23  24  25 0
 3-21G
 ****
 27  28  30  31  32  35  37  42  43  44  45  46  47 0
 3-21G
 ****
 48  49 0
 3-21G
 ****


