%nproc=1
%NoSave
%Mem=1900MB
#P OB98/GEN NMR

erre ene a

0 1
  C     -411.706    -890.610    -333.398
  O     -412.649    -890.294    -332.383
  P     -412.706    -888.782    -331.859
  C     -415.250    -888.785    -331.169
  O     -413.869    -888.739    -330.769
  C     -416.152    -888.700    -329.934
  O     -416.116    -889.946    -329.211
  C     -415.764    -887.630    -328.937
  O     -416.164    -886.335    -329.351
  C     -416.486    -888.133    -327.669
  O     -417.872    -887.765    -327.712
  C     -416.334    -889.654    -327.810
  N     -415.254    -890.216    -326.986
  C     -415.610    -890.640    -325.711
  O     -416.756    -890.565    -325.268
  N     -414.588    -891.134    -324.939
  C     -413.265    -891.181    -325.289
  O     -412.379    -891.596    -324.545
  C     -412.943    -890.677    -326.629
  C     -413.943    -890.229    -327.407
  O     -413.301    -888.044    -333.142
  O     -411.365    -888.284    -331.396
  H     -413.851    -888.643    -333.678
  H     -417.901    -886.792    -327.715
  H     -414.829    -891.464    -324.011
  H     -411.907    -890.696    -326.936
  H     -413.712    -889.854    -328.398
  H     -417.261    -890.163    -327.539
  H     -416.066    -887.719    -326.750
  H     -414.684    -887.647    -328.756
  H     -417.192    -888.552    -330.278
  H     -415.431    -889.703    -331.696
  H     -415.442    -887.934    -331.845
  P     -415.450    -885.090    -328.605
  C     -415.269    -883.458    -330.645
  O     -415.885    -883.780    -329.413
  O     -413.918    -885.323    -329.014
  O     -415.709    -885.051    -327.137
  H     -413.801    -885.571    -329.939
  H     -415.914    -882.773    -331.195
  H     -415.116    -884.359    -331.257
  H     -414.305    -882.969    -330.459
  H     -411.783    -891.648    -333.645
  H     -410.718    -890.399    -333.045
  H     -411.907    -890.020    -334.268

 3  4  5  6  7  8  9  10  11  12  13  24  28  29  30  31  32 0
 6-311+G(2d,p)
 ****
 33  34 0
 6-311+G(2d,p)
 ****
 1  2  14  15  16  17  18  19  20  21  22  23  25  26  27 0
 3-21G
 ****
 35  36  37  38  39  40  41  42  43  44  45 0
 3-21G
 ****


