%nproc=1
%NoSave
%Mem=1900MB
#P OB98/GEN NMR

erre ene a

0 1
  C     -323.922    -414.330     214.572
  O     -325.256    -414.005     214.922
  H     -323.300    -413.433     214.575
  H     -323.528    -415.037     215.308
  H     -323.901    -414.797     213.582
  P     -325.976    -412.891     214.023
  C     -326.011    -410.712     215.431
  O     -325.334    -411.479     214.441
  C     -325.798    -411.331     216.811
  O     -324.392    -411.584     217.032
  C     -326.232    -410.449     217.975
  O     -327.638    -410.484     218.169
  C     -325.486    -411.120     219.124
  O     -326.216    -412.281     219.564
  C     -324.170    -411.539     218.464
  N     -319.735    -410.938     220.993
  C     -320.600    -411.967     220.939
  N     -321.763    -412.058     220.255
  C     -321.999    -410.935     219.549
  C     -321.203    -409.795     219.508
  C     -320.012    -409.819     220.280
  N     -319.146    -408.749     220.342
  N     -321.756    -408.841     218.681
  C     -322.862    -409.393     218.229
  N     -323.059    -410.647     218.733
  O     -327.457    -412.824     214.628
  O     -326.003    -413.170     212.552
  H     -327.030    -411.958     219.991
  H     -328.090    -412.658     213.904
  H     -320.330    -412.848     221.511
  H     -323.541    -408.919     217.531
  H     -323.871    -412.556     218.771
  H     -325.362    -410.469     219.988
  H     -325.862    -409.420     217.858
  H     -326.325    -412.292     216.827
  H     -327.085    -410.694     215.209
  H     -318.239    -408.894     220.746
  H     -319.373    -407.927     219.807
  H     -325.621    -409.691     215.406
  P     -328.338    -409.163     218.775
  C     -329.272    -409.601     221.153
  O     -328.135    -409.256     220.361
  O     -329.898    -409.454     218.573
  O     -327.918    -407.875     218.128
  H     -330.385    -408.606     218.525
  H     -328.993    -409.626     222.186
  H     -329.634    -410.564     220.858
  H     -330.041    -408.872     221.009

 6  7  8  9  10  11  12  13  14  15  25  28  32  33  34  35 0
 6-311+G(2d,p)
 ****
 36  39  40 0
 6-311+G(2d,p)
 ****
 1  2  3  4  5  16  17  18  19  20  21  22  23  24 0
 3-21G
 ****
 26  27  29  30  31  37  38  41  42  43  44  45  46  47  48 0
 3-21G
 ****


