%nproc=1
%NoSave
%Mem=1900MB
#P OB98/GEN NMR

erre ene a

0 1
  C      784.980    -534.090     825.752
  O      785.439    -534.116     824.419
  H      785.270    -535.021     826.250
  H      783.889    -534.011     825.772
  H      785.422    -533.251     826.299
  P      785.328    -532.753     823.579
  C      782.943    -533.193     822.653
  O      783.762    -532.397     823.491
  C      781.727    -532.387     822.191
  O      780.946    -532.013     823.362
  C      782.086    -531.081     821.452
  O      781.117    -530.873     820.423
  C      781.923    -530.018     822.526
  O      781.685    -528.715     822.013
  C      780.727    -530.586     823.308
  N      780.619    -530.024     824.654
  C      780.186    -528.712     824.760
  O      779.806    -528.010     823.810
  N      780.193    -528.174     826.026
  C      780.609    -528.817     827.163
  O      780.612    -528.286     828.263
  C      781.070    -530.206     826.988
  C      781.057    -530.732     825.753
  O      785.687    -533.223     822.089
  O      786.194    -531.633     824.048
  H      786.649    -533.156     821.931
  H      782.549    -528.343     821.745
  H      779.876    -527.228     826.116
  H      781.420    -530.732     827.860
  H      781.408    -531.750     825.587
  H      779.792    -530.411     822.760
  H      782.814    -529.983     823.159
  H      783.099    -531.081     821.025
  H      781.092    -533.023     821.568
  H      782.591    -534.079     823.213
  H      783.521    -533.535     821.787
  P      781.665    -530.653     818.932
  C      781.014    -528.110     818.948
  O      782.035    -529.096     818.818
  O      780.311    -530.802     818.075
  O      782.752    -531.619     818.561
  H      779.537    -530.445     818.541
  H      781.444    -527.136     818.845
  H      780.555    -528.197     819.910
  H      780.277    -528.257     818.186

 6  7  8  9  10  11  12  13  14  15  16  27  31  32  33  34  35 0
 6-311+G(2d,p)
 ****
 36  37 0
 6-311+G(2d,p)
 ****
 1  2  3  4  5  17  18  19  20  21  22  23  24  25 0
 3-21G
 ****
 26  28  29  30  38  39  40  41  42  43  44  45 0
 3-21G
 ****


