%nproc=1
%NoSave
%Mem=1900MB
#P OB98/GEN NMR

erre ene a

0 1
  C      -14.784     -36.162      94.808
  O      -16.099     -36.322      94.268
  P      -17.337     -35.925      95.212
  C      -17.000     -33.333      95.279
  O      -17.750     -34.431      94.790
  C      -17.172     -32.108      94.374
  O      -17.025     -32.503      92.977
  C      -18.524     -31.400      94.518
  O      -18.273     -29.993      94.384
  C      -19.307     -31.911      93.324
  O      -20.375     -31.042      92.974
  C      -18.192     -32.020      92.280
  N      -18.546     -32.887      91.160
  C      -19.592     -32.470      90.346
  O      -20.261     -31.466      90.580
  N      -19.877     -33.276      89.277
  C      -19.281     -34.472      88.995
  O      -19.575     -35.155      88.022
  C      -18.258     -34.917      89.956
  C      -17.946     -34.116      90.978
  O      -16.615     -35.755      96.626
  O      -18.441     -36.929      95.177
  H      -15.727     -35.364      96.564
  H      -20.022     -30.139      92.846
  H      -20.612     -32.975      88.655
  H      -17.805     -35.886      89.799
  H      -17.215     -34.422      91.714
  H      -17.943     -31.027      91.882
  H      -19.724     -32.900      93.546
  H      -19.010     -31.600      95.477
  H      -16.360     -31.405      94.598
  H      -15.938     -33.596      95.317
  H      -17.310     -33.114      96.307
  P      -18.496     -29.054      95.673
  C      -16.635     -29.846      97.334
  O      -17.074     -28.895      96.390
  O      -19.270     -30.080      96.634
  O      -19.270     -27.804      95.419
  H      -18.849     -30.954      96.676
  H      -15.570     -29.691      97.520
  H      -16.778     -30.865      96.965
  H      -17.179     -29.715      98.274
  H      -14.060     -36.461      94.079
  H      -14.681     -36.770      95.683
  H      -14.627     -35.136      95.066

 3  4  5  6  7  8  9  10  11  12  13  24  28  29  30  31  32 0
 6-311+G(2d,p)
 ****
 33  34 0
 6-311+G(2d,p)
 ****
 1  2  14  15  16  17  18  19  20  21  22  23  25  26  27 0
 3-21G
 ****
 35  36  37  38  39  40  41  42  43  44  45 0
 3-21G
 ****


