%nproc=1
%NoSave
%Mem=1900MB
#P OB98/GEN NMR

erre ene a

0 1
  C       24.512    -110.637    -211.838
  O       24.566    -109.569    -210.922
  P       23.359    -108.564    -210.657
  C       25.007    -106.548    -210.910
  O       23.961    -107.163    -210.164
  C       25.676    -105.426    -210.098
  O       24.663    -104.441    -209.758
  C       26.248    -105.953    -208.767
  O       27.520    -105.416    -208.435
  C       25.109    -105.712    -207.787
  O       25.525    -105.691    -206.429
  C       24.508    -104.416    -208.326
  N       21.102    -101.666    -205.736
  C       22.433    -101.392    -205.985
  N       22.960    -100.349    -205.306
  N       23.174    -102.101    -206.796
  C       22.542    -103.179    -207.310
  C       21.228    -103.554    -207.134
  C       20.407    -102.743    -206.267
  O       19.257    -103.016    -205.926
  N       20.945    -104.743    -207.759
  C       22.101    -105.111    -208.279
  N       23.105    -104.206    -208.005
  O       22.169    -109.113    -209.936
  O       22.889    -108.215    -212.166
  H       26.014    -106.522    -206.261
  H       21.920    -108.086    -212.145
  H       20.600    -101.131    -205.037
  H       22.275    -106.024    -208.834
  H       25.034    -103.541    -207.941
  H       24.403    -106.546    -207.893
  H       22.453     -99.877    -204.569
  H       26.438    -107.029    -208.838
  H       23.976    -100.280    -205.282
  H       26.428    -104.930    -210.717
  H       24.542    -106.137    -211.811
  H       25.748    -107.291    -211.221
  P       28.813    -106.173    -207.882
  C       29.118    -105.007    -205.617
  O       29.622    -105.172    -206.926
  O       29.780    -106.312    -209.151
  O       28.545    -107.513    -207.291
  H       30.219    -107.186    -209.130
  H       29.579    -104.118    -205.171
  H       29.380    -105.878    -205.009
  H       28.030    -104.880    -205.628
  H       25.445    -111.160    -211.831
  H       24.324    -110.256    -212.820
  H       23.726    -111.307    -211.559

 3  4  5  6  7  8  9  10  11  12  23  26  30  31 0
 6-311+G(2d,p)
 ****
 33  35  36  37  38 0
 6-311+G(2d,p)
 ****
 1  2  13  14  15  16  17  18  19  20  21  22  24  25 0
 3-21G
 ****
 27  28  29  32  34  39  40  41  42  43  44  45  46  47  48  49 0
 3-21G
 ****


