%nproc=1
%NoSave
%Mem=1900MB
#P OB98/GEN NMR

erre ene a

0 1
  C     -353.244     337.435     -43.888
  O     -352.522     336.203     -44.045
  P     -353.231     334.794     -44.338
  C     -353.190     334.677     -46.921
  O     -352.629     334.203     -45.704
  C     -353.169     333.573     -47.992
  O     -353.917     333.997     -49.160
  C     -351.794     333.222     -48.537
  O     -351.021     332.481     -47.618
  C     -352.161     332.461     -49.808
  O     -352.441     331.082     -49.526
  C     -353.451     333.180     -50.260
  N     -353.271     333.975     -51.464
  C     -353.669     333.390     -52.666
  O     -354.071     332.230     -52.690
  N     -353.584     334.142     -53.820
  C     -353.055     335.320     -53.782
  N     -353.007     336.017     -54.954
  C     -352.489     335.913     -52.557
  C     -352.632     335.199     -51.445
  O     -354.724     334.849     -44.317
  O     -352.676     333.798     -43.212
  H     -353.327     333.092     -43.051
  H     -352.666     330.663     -50.380
  H     -352.015     336.892     -52.583
  H     -352.266     335.569     -50.493
  H     -354.253     332.452     -50.434
  H     -351.362     332.484     -50.556
  H     -351.267     334.149     -48.804
  H     -353.655     332.679     -47.572
  H     -353.412     335.586     -55.771
  H     -352.592     335.522     -47.280
  H     -352.638     336.954     -55.026
  H     -354.213     335.023     -46.738
  P     -349.441     332.754     -47.601
  C     -349.167     334.515     -45.712
  O     -349.034     333.166     -46.110
  O     -349.286     334.115     -48.433
  O     -348.618     331.661     -48.199
  H     -348.485     334.075     -48.988
  H     -349.326     334.552     -44.634
  H     -350.013     335.001     -46.217
  H     -348.245     335.063     -45.953
  H     -352.554     338.231     -43.701
  H     -353.921     337.349     -43.064
  H     -353.794     337.642     -44.782

 3  4  5  6  7  8  9  10  11  12  13  24  27  28  29  30  32 0
 6-311+G(2d,p)
 ****
 34  35 0
 6-311+G(2d,p)
 ****
 1  2  14  15  16  17  18  19  20  21  22  23  25  26 0
 3-21G
 ****
 31  33  36  37  38  39  40  41  42  43  44  45  46 0
 3-21G
 ****


