%nproc=1
%NoSave
%Mem=1900MB
#P OB98/GEN NMR

erre ene a

0 1
  C      585.922      61.565     401.256
  O      585.578      62.597     402.160
  H      586.980      61.664     401.001
  H      585.334      61.657     400.337
  H      585.758      60.584     401.707
  P      584.095      62.625     402.773
  C      583.773      65.175     402.757
  O      583.952      64.018     403.559
  C      584.390      66.399     403.432
  O      583.935      66.453     404.808
  C      585.924      66.385     403.446
  O      586.388      67.721     403.247
  C      586.261      65.930     404.851
  O      587.538      66.398     405.280
  C      585.098      66.511     405.656
  N      585.921      66.504     410.641
  C      586.214      67.462     409.691
  N      586.845      68.576     410.125
  N      585.921      67.338     408.424
  C      585.280      66.181     408.131
  C      584.934      65.156     408.981
  C      585.278      65.298     410.379
  O      585.054      64.478     411.261
  N      584.316      64.133     408.303
  C      584.292      64.541     407.045
  N      584.873      65.772     406.888
  O      583.707      61.422     403.571
  O      583.152      62.823     401.496
  H      587.667      66.082     406.200
  H      582.758      61.973     401.225
  H      586.178      66.646     411.602
  H      583.875      63.984     406.214
  H      585.268      67.559     405.943
  H      586.264      64.834     404.897
  H      587.085      68.748     411.088
  H      586.352      65.729     402.682
  H      587.052      69.302     409.448
  H      584.008      67.299     402.936
  H      582.698      65.335     402.618
  H      584.235      65.011     401.778
  P      587.304      68.040     401.969
  C      588.937      69.944     402.554
  O      587.674      69.602     401.994
  O      586.787      67.527     400.665
  O      588.698      67.346     402.353
  H      589.146      67.061     401.530
  H      589.069      71.005     402.515
  H      589.715      69.467     401.996
  H      588.976      69.617     403.572

 6  7  8  9  10  11  12  13  14  15  26  29  33  34 0
 6-311+G(2d,p)
 ****
 36  38  39  40  41 0
 6-311+G(2d,p)
 ****
 1  2  3  4  5  16  17  18  19  20  21  22  23  24  25 0
 3-21G
 ****
 27  28  30  31  32  35  37  42  43  44  45  46  47 0
 3-21G
 ****
 48  49 0
 3-21G
 ****


