%nproc=1
%NoSave
%Mem=1900MB
#P OB98/GEN NMR

erre ene a

0 1
  C      154.077    -530.138    -255.073
  O      155.166    -529.506    -255.717
  H      153.749    -530.985    -255.685
  H      153.242    -529.444    -254.960
  H      154.382    -530.512    -254.094
  P      155.740    -528.137    -255.112
  C      158.165    -528.956    -255.403
  O      157.212    -527.946    -255.720
  C      159.479    -528.714    -256.149
  O      159.250    -528.941    -257.566
  C      160.028    -527.288    -255.975
  O      161.454    -527.372    -255.902
  C      159.604    -526.610    -257.258
  O      160.425    -525.494    -257.557
  C      159.662    -527.754    -258.274
  N      158.807    -527.478    -259.430
  C      159.383    -526.741    -260.469
  O      160.551    -526.359    -260.387
  N      158.600    -526.379    -261.535
  C      157.340    -526.690    -261.546
  N      156.611    -526.279    -262.623
  C      156.682    -527.454    -260.458
  C      157.466    -527.814    -259.443
  O      155.653    -527.987    -253.630
  O      154.885    -527.008    -255.861
  H      160.222    -525.174    -258.460
  H      154.088    -526.793    -255.345
  H      155.628    -527.676    -260.512
  H      157.073    -528.363    -258.599
  H      160.695    -527.905    -258.627
  H      158.570    -526.251    -257.158
  H      159.635    -526.782    -255.084
  H      160.210    -529.462    -255.818
  H      157.099    -525.736    -263.328
  H      157.744    -529.922    -255.706
  H      155.620    -526.415    -262.721
  H      158.342    -528.970    -254.319
  P      162.188    -527.671    -254.499
  C      163.661    -529.592    -255.356
  O      163.647    -528.283    -254.793
  O      161.369    -528.462    -253.528
  O      162.513    -526.214    -253.914
  H      162.502    -526.252    -252.937
  H      164.673    -529.903    -255.511
  H      163.143    -529.583    -256.292
  H      163.177    -530.273    -254.687

 6  7  8  9  10  11  12  13  14  15  16  26  30  31  32  33  35 0
 6-311+G(2d,p)
 ****
 37  38 0
 6-311+G(2d,p)
 ****
 1  2  3  4  5  17  18  19  20  21  22  23  24  25 0
 3-21G
 ****
 27  28  29  34  36  39  40  41  42  43  44  45  46 0
 3-21G
 ****


