%nproc=1
%NoSave
%Mem=1900MB
#P OB98/GEN NMR

erre ene a

0 1
  C     -247.655    -162.460    -239.754
  O     -246.413    -162.017    -240.261
  H     -247.510    -162.793    -238.723
  H     -248.030    -163.300    -240.341
  H     -248.385    -161.646    -239.757
  P     -246.354    -161.474    -241.770
  C     -243.769    -161.598    -241.651
  O     -244.944    -162.015    -242.327
  C     -242.659    -162.630    -241.835
  O     -242.943    -163.839    -241.099
  C     -242.449    -163.098    -243.273
  O     -241.815    -162.135    -244.098
  C     -241.580    -164.315    -243.026
  O     -240.239    -163.898    -242.711
  C     -242.279    -164.936    -241.795
  N     -243.246    -165.970    -242.158
  C     -242.761    -167.284    -242.226
  O     -241.578    -167.530    -241.991
  N     -243.625    -168.291    -242.585
  C     -244.856    -168.009    -242.879
  N     -245.664    -169.044    -243.235
  C     -245.403    -166.639    -242.842
  C     -244.554    -165.681    -242.477
  O     -246.597    -160.012    -241.952
  O     -247.390    -162.397    -242.569
  H     -239.936    -163.340    -243.451
  H     -247.400    -162.095    -243.511
  H     -246.430    -166.454    -243.124
  H     -244.880    -164.648    -242.433
  H     -241.546    -165.360    -241.100
  H     -241.517    -164.982    -243.889
  H     -243.396    -163.430    -243.720
  H     -241.739    -162.205    -241.413
  H     -245.266    -169.971    -243.251
  H     -244.011    -161.467    -240.594
  H     -246.617    -168.909    -243.555
  H     -243.423    -160.644    -242.057
  P     -242.645    -161.602    -245.366
  C     -240.468    -160.516    -246.318
  O     -241.580    -161.371    -246.539
  O     -243.069    -160.127    -244.924
  O     -243.817    -162.446    -245.757
  H     -243.988    -160.116    -244.590
  H     -239.866    -160.479    -247.202
  H     -239.885    -160.893    -245.504
  H     -240.816    -159.532    -246.082

 6  7  8  9  10  11  12  13  14  15  16  26  30  31  32  33  35 0
 6-311+G(2d,p)
 ****
 37  38 0
 6-311+G(2d,p)
 ****
 1  2  3  4  5  17  18  19  20  21  22  23  24  25 0
 3-21G
 ****
 27  28  29  34  36  39  40  41  42  43  44  45  46 0
 3-21G
 ****


