%nproc=1
%NoSave
%Mem=1900MB
#P OB98/GEN NMR

erre ene a

0 1
  C      -27.256      22.844     -27.285
  O      -27.435      21.507     -26.851
  P      -26.550      20.974     -25.625
  C      -24.955      19.821     -27.365
  O      -25.098      20.642     -26.222
  C      -23.510      19.863     -27.873
  O      -23.152      21.243     -28.161
  C      -22.472      19.318     -26.883
  O      -21.451      18.670     -27.652
  C      -21.931      20.579     -26.233
  O      -20.649      20.391     -25.655
  C      -21.951      21.545     -27.424
  N      -21.931      22.954     -27.031
  C      -20.697      23.533     -26.752
  O      -19.629      22.925     -26.797
  N      -20.730      24.854     -26.386
  C      -21.849      25.613     -26.209
  O      -21.821      26.788     -25.861
  C      -23.126      24.934     -26.471
  C      -23.108      23.662     -26.872
  O      -27.205      19.538     -25.372
  O      -26.549      21.884     -24.445
  H      -27.494      19.101     -26.191
  H      -20.335      21.254     -25.329
  H      -19.843      25.305     -26.215
  H      -24.039      25.500     -26.327
  H      -24.036      23.140     -27.070
  H      -21.105      21.337     -28.089
  H      -22.617      20.905     -25.443
  H      -22.905      18.612     -26.169
  H      -23.462      19.311     -28.820
  H      -25.620      20.178     -28.156
  H      -25.250      18.796     -27.114
  P      -20.536      17.565     -26.922
  C      -18.311      18.940     -27.022
  O      -19.312      18.335     -26.235
  O      -19.851      16.876     -28.200
  O      -21.283      16.593     -26.070
  H      -19.487      17.520     -28.826
  H      -17.779      19.675     -26.411
  H      -18.737      19.451     -27.889
  H      -17.599      18.181     -27.357
  H      -27.914      23.044     -28.104
  H      -26.243      22.984     -27.599
  H      -27.476      23.513     -26.479

 3  4  5  6  7  8  9  10  11  12  13  24  28  29  30  31  32 0
 6-311+G(2d,p)
 ****
 33  34 0
 6-311+G(2d,p)
 ****
 1  2  14  15  16  17  18  19  20  21  22  23  25  26  27 0
 3-21G
 ****
 35  36  37  38  39  40  41  42  43  44  45 0
 3-21G
 ****


