%nproc=1
%NoSave
%Mem=1900MB
#P OB98/GEN NMR

erre ene a

0 1
  C     -710.252     129.393    -281.843
  O     -710.082     129.057    -283.207
  H     -709.359     129.901    -281.463
  H     -711.111     130.065    -281.751
  H     -710.451     128.489    -281.256
  P     -708.884     128.047    -283.552
  C     -710.166     127.380    -285.712
  O     -708.939     127.806    -285.136
  C     -709.976     127.062    -287.188
  O     -709.676     128.266    -287.925
  C     -708.823     126.098    -287.497
  O     -709.189     124.755    -287.265
  C     -708.608     126.379    -288.976
  O     -709.599     125.683    -289.754
  C     -708.843     127.896    -289.060
  N     -705.196     130.156    -291.862
  C     -706.339     129.518    -292.202
  N     -707.265     128.967    -291.399
  C     -706.943     129.127    -290.110
  C     -705.822     129.777    -289.597
  C     -704.927     130.309    -290.536
  N     -703.710     130.897    -290.169
  N     -705.819     129.729    -288.217
  C     -706.901     129.046    -287.906
  N     -707.612     128.672    -289.006
  O     -709.409     126.651    -282.936
  O     -707.550     128.424    -282.999
  H     -709.510     124.737    -289.531
  H     -709.017     126.522    -282.056
  H     -706.533     129.449    -293.271
  H     -707.203     128.806    -286.888
  H     -709.383     128.186    -289.966
  H     -707.619     126.053    -289.333
  H     -707.909     126.388    -286.941
  H     -710.929     126.664    -287.584
  H     -710.919     128.177    -285.607
  H     -702.997     130.800    -290.873
  H     -703.449     130.741    -289.198
  H     -710.511     126.494    -285.172
  P     -708.319     123.912    -286.208
  C     -710.064     123.348    -284.363
  O     -709.326     122.880    -285.500
  O     -708.023     124.997    -285.054
  O     -707.049     123.328    -286.730
  H     -707.051     125.066    -284.907
  H     -710.690     122.562    -283.996
  H     -710.670     124.182    -284.650
  H     -709.383     123.649    -283.595

 6  7  8  9  10  11  12  13  14  15  25  28  32  33  34  35 0
 6-311+G(2d,p)
 ****
 36  39  40 0
 6-311+G(2d,p)
 ****
 1  2  3  4  5  16  17  18  19  20  21  22  23  24 0
 3-21G
 ****
 26  27  29  30  31  37  38  41  42  43  44  45  46  47  48 0
 3-21G
 ****


