%nproc=1
%NoSave
%Mem=1900MB
#P OB98/GEN NMR

erre ene a

0 1
  C      292.352     169.076    -490.904
  O      293.235     168.055    -490.469
  H      291.538     169.193    -490.183
  H      292.909     170.017    -490.966
  H      291.948     168.840    -491.892
  P      292.665     166.556    -490.477
  C      293.378     166.050    -488.020
  O      293.549     165.748    -489.403
  C      294.644     165.699    -487.237
  O      294.776     164.250    -487.186
  C      295.927     166.258    -487.865
  O      296.803     166.687    -486.815
  C      296.527     165.063    -488.584
  O      297.930     165.178    -488.743
  C      296.094     163.917    -487.663
  N      298.835     160.702    -490.545
  C      299.160     161.846    -489.899
  N      298.371     162.633    -489.148
  C      297.127     162.118    -489.052
  C      296.648     160.964    -489.653
  C      297.558     160.241    -490.442
  N      297.225     159.101    -491.132
  N      295.311     160.785    -489.341
  C      294.998     161.809    -488.579
  N      296.065     162.639    -488.373
  O      293.186     166.001    -491.888
  O      291.187     166.421    -490.332
  H      298.246     164.423    -489.293
  H      292.600     166.324    -492.603
  H      300.198     162.167    -490.013
  H      294.015     161.995    -488.148
  H      296.759     163.788    -486.804
  H      296.078     164.966    -489.574
  H      295.736     167.093    -488.544
  H      294.519     166.044    -486.204
  H      292.532     165.473    -487.637
  H      297.922     158.678    -491.726
  H      296.268     158.785    -491.113
  H      293.160     167.120    -487.915
  P      296.428     168.070    -486.077
  C      296.921     169.771    -487.973
  O      297.319     169.247    -486.712
  O      297.033     167.882    -484.604
  O      294.954     168.337    -486.033
  H      296.362     168.104    -483.936
  H      297.601     170.542    -488.270
  H      295.934     170.177    -487.895
  H      296.928     168.989    -488.703

 6  7  8  9  10  11  12  13  14  15  25  28  32  33  34  35 0
 6-311+G(2d,p)
 ****
 36  39  40 0
 6-311+G(2d,p)
 ****
 1  2  3  4  5  16  17  18  19  20  21  22  23  24 0
 3-21G
 ****
 26  27  29  30  31  37  38  41  42  43  44  45  46  47 0
 3-21G
 ****
 48 0
 3-21G
 ****


