%nproc=1
%NoSave
%Mem=1900MB
#P OB98/GEN NMR

erre ene a

0 1
  C     -532.894    -181.731     887.650
  O     -531.744    -180.994     888.006
  P     -531.003    -180.045     886.937
  C     -529.111    -179.937     888.705
  O     -529.435    -180.125     887.326
  C     -528.045    -180.933     889.139
  O     -528.559    -182.288     889.138
  C     -526.804    -180.959     888.244
  O     -525.972    -179.841     888.517
  C     -526.211    -182.307     888.605
  O     -525.418    -182.221     889.813
  C     -527.460    -183.181     888.853
  N     -527.747    -184.060     887.720
  C     -527.182    -185.325     887.770
  O     -526.433    -185.659     888.713
  N     -527.388    -186.202     886.713
  C     -528.123    -185.808     885.701
  N     -528.304    -186.719     884.700
  C     -528.707    -184.461     885.591
  C     -528.490    -183.631     886.626
  O     -531.570    -178.672     886.799
  O     -531.073    -180.911     885.583
  H     -525.013    -183.097     889.946
  H     -531.991    -180.903     885.194
  H     -529.284    -184.173     884.727
  H     -528.887    -182.623     886.635
  H     -527.332    -183.804     889.744
  H     -525.539    -182.694     887.827
  H     -527.112    -180.962     887.184
  H     -527.749    -180.695     890.180
  H     -527.835    -187.610     884.792
  H     -530.037    -180.112     889.290
  H     -528.801    -186.490     883.844
  H     -528.790    -178.901     888.861
  P     -525.082    -179.219     887.339
  C     -523.720    -177.926     889.119
  O     -523.675    -178.762     887.973
  O     -525.760    -178.173     886.496
  O     -524.689    -180.478     886.425
  H     -524.802    -180.260     885.493
  H     -522.772    -177.979     889.631
  H     -524.505    -178.248     889.794
  H     -523.912    -176.897     888.804
  H     -533.232    -182.294     888.495
  H     -532.656    -182.398     886.848
  H     -533.666    -181.059     887.337

 3  4  5  6  7  8  9  10  11  12  13  23  27  28  29  30  32 0
 6-311+G(2d,p)
 ****
 34  35 0
 6-311+G(2d,p)
 ****
 1  2  14  15  16  17  18  19  20  21  22  24  25  26 0
 3-21G
 ****
 31  33  36  37  38  39  40  41  42  43  44  45  46 0
 3-21G
 ****


