%nproc=1
%NoSave
%Mem=1900MB
#P OB98/GEN NMR

erre ene a

0 1
  C       17.392      20.786     -25.212
  O       18.203      20.295     -26.260
  H       16.345      20.734     -25.525
  H       17.642      21.830     -25.005
  H       17.515      20.188     -24.305
  P       19.753      20.008     -25.970
  C       20.315      22.144     -27.303
  O       20.512      21.417     -26.099
  C       21.632      22.286     -28.072
  O       22.467      23.268     -27.383
  C       22.447      20.979     -28.168
  O       23.154      21.009     -29.415
  C       23.398      21.141     -26.996
  O       24.461      20.228     -27.054
  C       23.737      22.627     -27.138
  N       24.399      23.189     -25.967
  C       25.621      22.637     -25.596
  O       26.176      21.727     -26.209
  N       26.194      23.165     -24.469
  C       25.674      24.161     -23.696
  O       26.243      24.611     -22.708
  C       24.367      24.685     -24.122
  C       23.797      24.184     -25.221
  O       20.362      18.890     -26.747
  O       19.796      19.723     -24.394
  H       19.797      18.760     -24.236
  H       24.136      19.337     -27.306
  H       27.082      22.776     -24.186
  H       23.917      25.461     -23.517
  H       22.833      24.544     -25.564
  H       24.361      22.800     -28.022
  H       22.873      20.953     -26.054
  H       21.822      20.082     -28.121
  H       21.419      22.694     -29.068
  H       19.928      23.136     -27.045
  H       19.576      21.623     -27.922
  P       22.515      20.513     -30.803
  C       23.346      18.127     -30.282
  O       22.264      18.928     -30.737
  O       23.293      20.939     -32.005
  O       21.040      21.134     -30.840
  H       20.815      21.374     -31.759
  H       23.053      17.098     -30.284
  H       23.613      18.420     -29.288
  H       24.186      18.260     -30.931

 6  7  8  9  10  11  12  13  14  15  16  27  31  32  33  34  35 0
 6-311+G(2d,p)
 ****
 36  37 0
 6-311+G(2d,p)
 ****
 1  2  3  4  5  17  18  19  20  21  22  23  24  25 0
 3-21G
 ****
 26  28  29  30  38  39  40  41  42  43  44  45 0
 3-21G
 ****


