%nproc=1
%NoSave
%Mem=1900MB
#P OB98/GEN NMR

erre ene a

0 1
  C     -115.014    -280.550    -102.287
  O     -115.965    -279.824    -101.537
  H     -115.367    -280.625    -103.319
  H     -114.903    -281.559    -101.883
  H     -114.046    -280.040    -102.284
  P     -115.631    -279.453    -100.014
  C     -117.065    -277.312    -100.084
  O     -116.859    -278.578     -99.468
  C     -118.501    -277.207    -100.590
  O     -118.762    -278.229    -101.576
  C     -119.553    -277.402     -99.502
  O     -119.659    -276.249     -98.691
  C     -120.776    -277.711    -100.352
  O     -121.343    -276.511    -100.898
  C     -120.161    -278.581    -101.476
  N     -120.330    -280.016    -101.242
  C     -121.311    -280.647    -101.999
  O     -122.015    -280.060    -102.819
  N     -121.492    -281.981    -101.744
  C     -120.863    -282.699    -100.768
  O     -121.209    -283.828    -100.428
  C     -119.784    -281.999    -100.054
  C     -119.582    -280.706    -100.308
  O     -114.281    -278.866     -99.771
  O     -115.813    -280.845     -99.240
  H     -114.935    -281.239     -99.075
  H     -122.128    -276.782    -101.412
  H     -122.234    -282.440    -102.253
  H     -119.218    -282.552     -99.316
  H     -118.811    -280.160     -99.773
  H     -120.620    -278.336    -102.444
  H     -121.565    -278.207     -99.781
  H     -119.310    -278.282     -98.897
  H     -118.621    -276.229    -101.077
  H     -116.374    -277.220    -100.930
  H     -116.848    -276.521     -99.360
  P     -119.850    -276.367     -97.105
  C     -117.813    -274.837     -96.822
  O     -119.152    -275.094     -96.426
  O     -119.451    -277.678     -96.516
  O     -121.411    -276.088     -96.875
  H     -121.791    -276.820     -96.354
  H     -117.450    -273.970     -96.310
  H     -117.780    -274.668     -97.878
  H     -117.201    -275.679     -96.576

 6  7  8  9  10  11  12  13  14  15  16  27  31  32  33  34  35 0
 6-311+G(2d,p)
 ****
 36  37 0
 6-311+G(2d,p)
 ****
 1  2  3  4  5  17  18  19  20  21  22  23  24  25 0
 3-21G
 ****
 26  28  29  30  38  39  40  41  42  43  44  45 0
 3-21G
 ****


