%nproc=1
%NoSave
%Mem=1900MB
#P OB98/GEN NMR

erre ene a

0 1
  C      385.768    -251.679      90.614
  O      386.440    -251.300      89.432
  P      387.192    -249.902      89.259
  C      386.462    -247.469      89.808
  O      386.089    -248.730      89.271
  C      385.474    -246.345      89.453
  O      384.141    -246.739      89.842
  C      385.803    -245.079      90.253
  O      386.800    -244.189      89.797
  C      384.454    -244.437      90.545
  O      384.136    -243.383      89.632
  C      383.464    -245.597      90.383
  N      379.697    -244.619      93.637
  C      379.863    -244.175      92.339
  N      379.011    -243.205      91.932
  N      380.786    -244.629      91.531
  C      381.621    -245.526      92.111
  C      381.546    -246.050      93.382
  C      380.495    -245.569      94.253
  O      380.372    -245.874      95.438
  N      382.606    -246.881      93.652
  C      383.340    -246.832      92.560
  N      382.801    -245.990      91.611
  O      388.283    -249.845      88.239
  O      387.881    -249.732      90.710
  H      384.344    -243.695      88.729
  H      388.734    -249.274      90.579
  H      379.016    -244.174      94.243
  H      384.280    -247.354      92.415
  H      382.673    -245.332      89.665
  H      384.443    -243.992      91.546
  H      378.390    -242.733      92.571
  H      386.171    -245.412      91.233
  H      379.211    -242.745      91.054
  H      385.433    -246.185      88.373
  H      387.464    -247.234      89.428
  H      386.543    -247.543      90.897
  P      387.300    -242.862      90.541
  C      385.820    -241.226      91.831
  O      386.090    -241.814      90.574
  O      388.327    -242.194      89.508
  O      387.968    -243.095      91.860
  H      388.934    -241.595      89.984
  H      384.822    -240.777      91.809
  H      386.553    -240.439      92.035
  H      385.857    -241.975      92.631
  H      385.346    -252.654      90.487
  H      384.988    -250.977      90.822
  H      386.461    -251.694      91.429

 3  4  5  6  7  8  9  10  11  12  23  26  30  31 0
 6-311+G(2d,p)
 ****
 33  35  36  37  38 0
 6-311+G(2d,p)
 ****
 1  2  13  14  15  16  17  18  19  20  21  22  24  25 0
 3-21G
 ****
 27  28  29  32  34  39  40  41  42  43  44  45  46  47  48  49 0
 3-21G
 ****


