%nproc=1
%NoSave
%Mem=1900MB
#P OB98/GEN NMR

erre ene a

0 1
  C       88.962     342.417     -32.232
  O       87.758     342.095     -32.900
  H       89.796     341.945     -32.762
  H       88.940     342.041     -31.204
  H       89.114     343.498     -32.226
  P       86.401     342.612     -32.209
  C       86.626     340.605     -30.557
  O       85.818     341.295     -31.498
  C       85.818     339.494     -29.897
  O       86.625     338.777     -28.938
  C       84.599     339.986     -29.118
  O       83.500     340.301     -29.957
  C       84.325     338.771     -28.252
  O       83.692     337.747     -29.043
  C       85.757     338.357     -27.851
  N       86.194     338.951     -26.586
  C       86.148     338.128     -25.455
  O       85.749     336.967     -25.541
  N       86.530     338.648     -24.241
  C       86.931     339.880     -24.162
  N       87.281     340.348     -22.931
  C       87.010     340.775     -25.330
  C       86.631     340.254     -26.493
  O       85.402     342.810     -33.445
  O       86.530     343.804     -31.322
  H       82.762     338.013     -29.162
  H       84.494     343.011     -33.112
  H       87.341     341.800     -25.212
  H       86.660     340.858     -27.396
  H       85.842     337.264     -27.770
  H       83.659     338.987     -27.415
  H       84.853     340.830     -28.468
  H       85.527     338.778     -30.682
  H       87.159     339.730     -22.141
  H       86.969     341.323     -29.802
  H       87.431     341.331     -22.746
  H       87.499     340.172     -31.056
  P       82.943     341.808     -29.915
  C       81.441     341.774     -27.795
  O       81.500     341.756     -29.215
  O       82.597     342.106     -31.447
  O       83.893     342.820     -29.348
  H       82.826     343.022     -31.692
  H       80.419     341.735     -27.480
  H       81.892     342.673     -27.431
  H       81.967     340.928     -27.405

 6  7  8  9  10  11  12  13  14  15  16  26  30  31  32  33  35 0
 6-311+G(2d,p)
 ****
 37  38 0
 6-311+G(2d,p)
 ****
 1  2  3  4  5  17  18  19  20  21  22  23  24  25 0
 3-21G
 ****
 27  28  29  34  36  39  40  41  42  43  44  45  46 0
 3-21G
 ****


