%nproc=1
%NoSave
%Mem=1900MB
#P OB98/GEN NMR

erre ene a

0 1
  C     1409.047    -611.435     -76.823
  O     1409.060    -611.215     -78.230
  P     1410.454    -611.420     -79.006
  C     1409.428    -613.022     -80.795
  O     1410.045    -611.771     -80.509
  C     1408.395    -612.854     -81.908
  O     1407.172    -612.230     -81.401
  C     1408.843    -611.959     -83.042
  O     1409.782    -612.623     -83.897
  C     1407.516    -611.621     -83.719
  O     1407.109    -612.697     -84.577
  C     1406.580    -611.510     -82.493
  N     1406.261    -610.137     -82.142
  C     1404.957    -609.694     -82.446
  O     1404.150    -610.408     -82.989
  N     1404.666    -608.415     -82.097
  C     1405.531    -607.523     -81.519
  O     1405.196    -606.379     -81.236
  C     1406.892    -607.999     -81.274
  C     1407.189    -609.290     -81.588
  O     1410.948    -612.807     -78.376
  O     1411.392    -610.270     -78.829
  H     1410.215    -613.409     -78.189
  H     1406.198    -612.473     -84.863
  H     1403.728    -608.090     -82.304
  H     1407.599    -607.319     -80.853
  H     1408.180    -609.659     -81.412
  H     1405.629    -612.041     -82.699
  H     1407.558    -610.710     -84.344
  H     1409.315    -611.048     -82.648
  H     1408.122    -613.845     -82.296
  H     1408.926    -613.407     -79.905
  H     1410.185    -613.748     -81.079
  P     1410.516    -611.723     -85.007
  C     1412.896    -612.452     -84.201
  O     1411.969    -612.398     -85.254
  O     1410.838    -610.394     -84.182
  O     1409.691    -611.527     -86.249
  H     1411.192    -610.573     -83.285
  H     1413.646    -613.224     -84.436
  H     1412.417    -612.709     -83.251
  H     1413.406    -611.498     -84.103
  H     1408.061    -611.263     -76.444
  H     1409.733    -610.763     -76.351
  H     1409.337    -612.444     -76.617

 3  4  5  6  7  8  9  10  11  12  13  24  28  29  30  31  32 0
 6-311+G(2d,p)
 ****
 33  34 0
 6-311+G(2d,p)
 ****
 1  2  14  15  16  17  18  19  20  21  22  23  25  26  27 0
 3-21G
 ****
 35  36  37  38  39  40  41  42  43  44  45 0
 3-21G
 ****


