%nproc=1
%NoSave
%Mem=1900MB
#P OB98/GEN NMR

erre ene a

0 1
  C      -79.791     317.862     252.394
  O      -79.910     319.187     251.914
  H      -80.207     317.159     251.666
  H      -78.730     317.632     252.541
  H      -80.311     317.761     253.355
  P      -81.403     319.708     251.619
  C      -82.355     320.202     253.979
  O      -81.773     320.739     252.797
  C      -82.349     321.249     255.090
  O      -80.972     321.677     255.301
  C      -83.200     322.495     254.784
  O      -84.078     322.788     255.884
  C      -82.185     323.621     254.663
  O      -82.679     324.868     255.146
  C      -81.016     323.105     255.495
  N      -77.259     326.207     257.013
  C      -78.166     325.492     257.717
  N      -79.076     324.608     257.253
  C      -78.969     324.469     255.920
  C      -78.080     325.115     255.074
  C      -77.208     326.034     255.670
  N      -76.316     326.808     254.949
  N      -78.282     324.720     253.759
  C      -79.300     323.885     253.809
  N      -79.763     323.712     255.089
  O      -82.307     318.424     251.942
  O      -81.623     320.200     250.228
  H      -82.107     325.568     254.783
  H      -82.781     318.162     251.129
  H      -78.164     325.654     258.793
  H      -79.775     323.416     252.953
  H      -81.156     323.291     256.568
  H      -81.909     323.737     253.609
  H      -83.796     322.389     253.873
  H      -82.684     320.774     256.021
  H      -81.778     319.330     254.306
  H      -75.813     327.523     255.437
  H      -76.354     326.765     253.936
  H      -83.381     319.883     253.760
  P      -85.419     321.893     255.984
  C      -84.900     319.672     257.233
  O      -85.339     321.028     257.332
  O      -85.225     320.822     254.810
  O      -86.674     322.682     255.801
  H      -85.981     320.858     254.193
  H      -84.898     319.226     258.206
  H      -83.910     319.646     256.827
  H      -85.563     319.128     256.593

 6  7  8  9  10  11  12  13  14  15  25  28  32  33  34  35 0
 6-311+G(2d,p)
 ****
 36  39  40 0
 6-311+G(2d,p)
 ****
 1  2  3  4  5  16  17  18  19  20  21  22  23  24 0
 3-21G
 ****
 26  27  29  30  31  37  38  41  42  43  44  45  46  47  48 0
 3-21G
 ****


