%nproc=1
%NoSave
%Mem=1900MB
#P OB98/GEN NMR

erre ene a

0 1
  C     -550.902     118.402     -21.482
  O     -550.332     117.361     -22.250
  H     -551.988     118.364     -21.593
  H     -550.544     119.376     -21.834
  H     -550.648     118.271     -20.426
  P     -548.730     117.269     -22.254
  C     -548.361     116.897     -24.778
  O     -548.390     116.297     -23.488
  C     -548.630     115.850     -25.858
  O     -547.645     114.796     -25.739
  C     -550.018     115.205     -25.754
  O     -550.536     114.989     -27.064
  C     -549.737     113.867     -25.093
  O     -550.727     112.888     -25.397
  C     -548.339     113.542     -25.624
  N     -548.038     108.716     -23.996
  C     -548.756     109.295     -24.985
  N     -548.765     110.588     -25.360
  C     -547.883     111.303     -24.632
  C     -547.090     110.855     -23.591
  C     -547.196     109.492     -23.274
  N     -546.489     108.899     -22.252
  N     -546.355     111.897     -23.062
  C     -546.693     112.956     -23.779
  N     -547.629     112.646     -24.726
  O     -548.100     116.893     -20.953
  O     -548.319     118.705     -22.823
  H     -550.672     112.684     -26.354
  H     -548.876     118.961     -23.581
  H     -549.416     108.626     -25.540
  H     -546.303     113.958     -23.639
  H     -548.370     113.064     -26.610
  H     -549.715     113.996     -24.003
  H     -550.713     115.808     -25.174
  H     -548.486     116.315     -26.841
  H     -547.389     117.365     -24.955
  H     -546.612     107.908     -22.095
  H     -545.837     109.457     -21.710
  H     -549.133     117.675     -24.805
  P     -552.121     114.874     -27.243
  C     -552.248     113.359     -29.339
  O     -552.452     114.670     -28.805
  O     -552.941     115.908     -26.549
  O     -552.434     113.409     -26.644
  H     -553.284     113.440     -26.170
  H     -552.502     113.354     -30.378
  H     -552.868     112.661     -28.817
  H     -551.221     113.082     -29.221

 6  7  8  9  10  11  12  13  14  15  25  28  32  33  34  35 0
 6-311+G(2d,p)
 ****
 36  39  40 0
 6-311+G(2d,p)
 ****
 1  2  3  4  5  16  17  18  19  20  21  22  23  24 0
 3-21G
 ****
 26  27  29  30  31  37  38  41  42  43  44  45  46  47 0
 3-21G
 ****
 48 0
 3-21G
 ****


