%nproc=1
%NoSave
%Mem=1900MB
#P OB98/GEN NMR

erre ene a

0 1
  C       -6.694     429.780    -282.236
  O       -6.792     428.552    -282.928
  H       -7.099     430.591    -282.848
  H       -7.275     429.710    -281.314
  H       -5.651     429.991    -281.982
  P       -5.978     428.438    -284.307
  C       -6.914     428.442    -286.727
  O       -6.934     429.046    -285.442
  C       -7.930     429.119    -287.643
  O       -9.271     428.860    -287.175
  C       -7.808     430.637    -287.720
  O       -6.768     431.038    -288.598
  C       -9.177     431.004    -288.270
  O       -9.207     430.775    -289.692
  C      -10.091     429.998    -287.555
  N      -14.549     430.786    -285.170
  C      -14.241     430.148    -286.321
  N      -13.027     429.961    -286.881
  C      -12.066     430.500    -286.113
  C      -12.220     431.159    -284.906
  C      -13.536     431.302    -284.432
  N      -13.841     432.018    -283.283
  N      -10.998     431.583    -284.420
  C      -10.125     431.203    -285.330
  N      -10.721     430.538    -286.366
  O       -5.989     426.862    -284.598
  O       -4.589     428.984    -284.271
  H       -8.950     429.844    -289.832
  H       -5.152     426.472    -284.287
  H      -15.083     429.737    -286.868
  H       -9.062     431.390    -285.282
  H      -10.883     429.621    -288.211
  H       -9.438     432.054    -288.106
  H       -7.690     431.081    -286.724
  H       -7.835     428.670    -288.640
  H       -7.164     427.379    -286.635
  H      -14.769     432.438    -283.305
  H      -13.085     432.593    -282.934
  H       -5.906     428.535    -287.144
  P       -5.568     431.910    -287.986
  C       -5.056     434.412    -288.401
  O       -6.039     433.446    -288.058
  O       -4.438     431.807    -289.117
  O       -5.057     431.452    -286.665
  H       -3.615     431.458    -288.726
  H       -5.501     435.385    -288.413
  H       -4.660     434.189    -289.370
  H       -4.267     434.389    -287.679

 6  7  8  9  10  11  12  13  14  15  25  28  32  33  34  35 0
 6-311+G(2d,p)
 ****
 36  39  40 0
 6-311+G(2d,p)
 ****
 1  2  3  4  5  16  17  18  19  20  21  22  23  24 0
 3-21G
 ****
 26  27  29  30  31  37  38  41  42  43  44  45  46  47  48 0
 3-21G
 ****


