%nproc=1
%NoSave
%Mem=1900MB
#P OB98/GEN NMR

erre ene a

0 1
  C      191.754     459.642     378.323
  O      190.541     458.877     378.326
  P      189.102     459.502     378.688
  C      188.349     457.342     379.894
  O      188.064     458.282     378.873
  C      187.447     456.110     379.761
  O      188.045     455.145     378.867
  C      187.206     455.334     381.051
  O      186.326     456.000     381.931
  C      186.660     454.011     380.505
  O      185.257     454.086     380.248
  C      187.433     453.865     379.169
  N      188.431     452.801     379.188
  C      188.021     451.559     378.676
  O      186.860     451.384     378.300
  N      188.944     450.550     378.613
  C      190.131     450.727     379.124
  N      191.007     449.687     379.009
  C      190.551     451.958     379.794
  C      189.652     452.951     379.789
  O      188.635     460.547     377.723
  O      189.256     460.108     380.169
  H      188.618     460.835     380.286
  H      184.951     453.166     380.099
  H      191.526     452.052     380.243
  H      189.883     453.911     380.261
  H      186.725     453.683     378.344
  H      186.826     453.178     381.199
  H      188.170     455.150     381.546
  H      186.488     456.431     379.332
  H      190.695     448.853     378.529
  H      188.160     457.812     380.868
  H      191.960     449.726     379.349
  H      189.404     457.062     379.845
  P      186.917     456.443     383.356
  C      184.972     455.401     384.732
  O      185.701     456.564     384.379
  O      187.387     457.961     383.120
  O      188.055     455.597     383.843
  H      188.226     458.125     383.594
  H      184.554     455.528     385.736
  H      185.624     454.513     384.734
  H      184.164     455.252     384.020
  H      192.574     459.010     378.052
  H      191.923     460.047     379.299
  H      191.670     460.440     377.616

 3  4  5  6  7  8  9  10  11  12  13  24  27  28  29  30  32 0
 6-311+G(2d,p)
 ****
 34  35 0
 6-311+G(2d,p)
 ****
 1  2  14  15  16  17  18  19  20  21  22  23  25  26 0
 3-21G
 ****
 31  33  36  37  38  39  40  41  42  43  44  45  46 0
 3-21G
 ****


