%nproc=1
%NoSave
%Mem=1900MB
#P OB98/GEN NMR

erre ene a

0 1
  C      913.535    -146.647    1443.781
  O      912.900    -146.680    1445.045
  H      913.270    -145.708    1443.288
  H      913.202    -147.478    1443.160
  H      914.625    -146.679    1443.912
  P      913.032    -148.011    1445.933
  C      910.480    -148.333    1445.592
  O      911.555    -148.311    1446.519
  C      909.159    -148.622    1446.313
  O      909.182    -150.005    1446.779
  C      908.898    -147.723    1447.537
  O      907.461    -147.577    1447.668
  C      909.442    -148.580    1448.653
  O      909.039    -148.095    1449.915
  C      908.968    -149.967    1448.217
  N      909.667    -151.032    1448.902
  C      909.110    -151.463    1450.123
  O      908.092    -150.927    1450.551
  N      909.743    -152.471    1450.800
  C      910.864    -152.952    1450.365
  N      911.442    -153.932    1451.114
  C      911.510    -152.491    1449.128
  C      910.870    -151.550    1448.434
  O      914.112    -148.003    1446.958
  O      913.240    -149.177    1444.862
  H      908.101    -148.372    1450.110
  H      914.173    -149.450    1444.848
  H      912.462    -152.919    1448.808
  H      911.256    -151.136    1447.515
  H      907.879    -150.074    1448.407
  H      910.551    -148.543    1448.667
  H      909.379    -146.739    1447.447
  H      908.329    -148.534    1445.561
  H      910.966    -154.202    1451.964
  H      910.679    -149.106    1444.853
  H      912.335    -154.381    1450.875
  H      910.415    -147.352    1445.067
  P      906.635    -146.388    1446.944
  C      905.386    -145.433    1448.992
  O      905.288    -146.130    1447.731
  O      906.458    -146.605    1445.458
  O      907.495    -145.057    1447.208
  H      907.387    -144.458    1446.458
  H      904.410    -145.325    1449.417
  H      905.814    -144.466    1448.832
  H      906.006    -145.992    1449.661

 6  7  8  9  10  11  12  13  14  15  16  26  30  31  32  33  35 0
 6-311+G(2d,p)
 ****
 37  38 0
 6-311+G(2d,p)
 ****
 1  2  3  4  5  17  18  19  20  21  22  23  24  25 0
 3-21G
 ****
 27  28  29  34  36  39  40  41  42  43  44  45  46 0
 3-21G
 ****


