%nproc=1
%NoSave
%Mem=1900MB
#P OB98/GEN NMR

erre ene a

0 1
  C       55.050    -208.432     121.438
  O       53.999    -207.762     122.131
  P       54.202    -206.633     123.239
  C       53.312    -207.824     125.408
  O       54.416    -207.339     124.657
  C       53.634    -207.848     126.911
  O       54.675    -208.842     127.150
  C       54.170    -206.503     127.419
  O       53.639    -206.121     128.686
  C       55.677    -206.678     127.323
  O       56.405    -205.765     128.130
  C       55.846    -208.159     127.659
  N       60.934    -208.489     127.929
  C       60.077    -207.644     128.601
  N       60.640    -206.758     129.451
  N       58.779    -207.655     128.449
  C       58.352    -208.534     127.515
  C       59.107    -209.415     126.769
  C       60.536    -209.431     126.984
  O       61.341    -210.172     126.428
  N       58.317    -210.157     125.927
  C       57.095    -209.719     126.146
  N       57.063    -208.734     127.111
  O       53.236    -205.494     123.194
  O       55.666    -206.035     122.910
  H       57.328    -206.083     128.177
  H       55.640    -205.091     123.160
  H       61.927    -208.456     128.104
  H       56.201    -210.082     125.652
  H       55.893    -208.335     128.736
  H       55.966    -206.486     126.281
  H       61.635    -206.613     129.527
  H       53.860    -205.686     126.758
  H       60.033    -206.000     129.771
  H       52.738    -208.159     127.459
  H       53.127    -208.843     125.051
  H       52.417    -207.234     125.206
  P       52.623    -204.937     129.027
  C       54.503    -203.197     129.141
  O       53.269    -203.554     128.544
  O       52.653    -204.809     130.623
  O       51.221    -205.163     128.555
  H       51.762    -204.995     130.984
  H       54.698    -202.141     128.937
  H       55.308    -203.795     128.702
  H       54.473    -203.351     130.222
  H       54.631    -209.139     120.753
  H       55.672    -208.943     122.142
  H       55.635    -207.716     120.899

 3  4  5  6  7  8  9  10  11  12  23  26  30  31 0
 6-311+G(2d,p)
 ****
 33  35  36  37  38 0
 6-311+G(2d,p)
 ****
 1  2  13  14  15  16  17  18  19  20  21  22  24  25 0
 3-21G
 ****
 27  28  29  32  34  39  40  41  42  43  44  45  46  47  48  49 0
 3-21G
 ****


