%nproc=1
%NoSave
%Mem=1900MB
#P OB98/GEN NMR

erre ene a

0 1
  C     -644.710     479.422    -419.747
  O     -643.945     480.386    -420.444
  H     -645.764     479.483    -420.047
  H     -644.331     478.427    -419.997
  H     -644.619     479.579    -418.671
  P     -644.422     481.913    -420.296
  C     -643.314     482.234    -417.974
  O     -644.525     482.202    -418.719
  C     -642.950     483.673    -417.621
  O     -644.090     484.340    -417.028
  C     -641.831     483.819    -416.597
  O     -640.550     483.634    -417.184
  C     -642.046     485.258    -416.141
  O     -641.462     486.161    -417.107
  C     -643.575     485.390    -416.168
  N     -644.427     487.662    -411.638
  C     -643.772     488.074    -412.742
  N     -643.570     487.420    -413.905
  C     -644.160     486.210    -413.870
  C     -644.863     485.655    -412.813
  C     -644.989     486.432    -411.658
  N     -645.652     485.999    -410.524
  N     -645.330     484.400    -413.151
  C     -644.915     484.196    -414.384
  N     -644.194     485.257    -414.862
  O     -645.954     481.874    -420.762
  O     -643.635     482.910    -421.081
  H     -640.536     485.876    -417.223
  H     -646.161     482.703    -421.233
  H     -643.343     489.076    -412.687
  H     -645.111     483.301    -414.963
  H     -643.892     486.349    -416.599
  H     -641.593     485.470    -415.178
  H     -641.982     483.145    -415.742
  H     -642.701     484.201    -418.552
  H     -642.508     481.802    -418.573
  H     -645.873     486.663    -409.807
  H     -646.069     485.070    -410.548
  H     -643.448     481.644    -417.061
  P     -639.449     482.833    -416.331
  C     -639.422     480.881    -418.053
  O     -639.664     481.283    -416.709
  O     -640.014     482.926    -414.836
  O     -638.056     483.346    -416.439
  H     -639.277     482.832    -414.200
  H     -639.606     479.831    -418.150
  H     -638.405     481.090    -418.310
  H     -640.074     481.419    -418.709

 6  7  8  9  10  11  12  13  14  15  25  28  32  33  34  35 0
 6-311+G(2d,p)
 ****
 36  39  40 0
 6-311+G(2d,p)
 ****
 1  2  3  4  5  16  17  18  19  20  21  22  23  24 0
 3-21G
 ****
 26  27  29  30  31  37  38  41  42  43  44  45  46  47  48 0
 3-21G
 ****


