%nproc=1
%NoSave
%Mem=1900MB
#P OB98/GEN NMR

erre ene a

0 1
  C     -413.046    -148.951     -76.348
  O     -413.175    -147.541     -76.308
  P     -411.960    -146.717     -75.647
  C     -412.605    -146.875     -73.120
  O     -411.762    -147.314     -74.173
  C     -411.757    -146.486     -71.910
  O     -410.984    -147.613     -71.455
  C     -410.761    -145.366     -72.179
  O     -411.400    -144.106     -72.106
  C     -409.734    -145.599     -71.076
  O     -410.186    -145.042     -69.827
  C     -409.684    -147.134     -71.009
  N     -404.686    -147.751     -71.466
  C     -405.408    -146.934     -70.614
  N     -404.690    -146.216     -69.724
  N     -406.712    -146.838     -70.628
  C     -407.295    -147.607     -71.577
  C     -406.689    -148.441     -72.487
  C     -405.252    -148.577     -72.427
  O     -404.577    -149.357     -73.090
  N     -407.609    -149.039     -73.311
  C     -408.768    -148.589     -72.875
  N     -408.636    -147.733     -71.811
  O     -412.595    -145.271     -75.403
  O     -410.706    -146.667     -76.466
  H     -409.511    -145.204     -69.146
  H     -412.338    -144.656     -76.118
  H     -403.685    -147.794     -71.396
  H     -409.729    -148.869     -73.281
  H     -409.543    -147.496     -69.981
  H     -408.774    -145.132     -71.300
  H     -403.687    -146.217     -69.669
  H     -410.284    -145.506     -73.158
  H     -405.203    -145.605     -69.091
  H     -412.444    -146.201     -71.097
  H     -413.285    -147.687     -72.842
  H     -413.200    -146.025     -73.467
  P     -410.688    -142.872     -72.844
  C     -409.267    -141.699     -71.012
  O     -409.298    -142.610     -72.100
  O     -411.593    -141.620     -72.425
  O     -410.605    -143.006     -74.333
  H     -411.648    -140.989     -73.170
  H     -408.483    -142.009     -70.322
  H     -410.223    -141.678     -70.483
  H     -409.040    -140.698     -71.391
  H     -413.914    -149.376     -76.808
  H     -412.950    -149.329     -75.352
  H     -412.177    -149.214     -76.915

 3  4  5  6  7  8  9  10  11  12  23  26  30  31 0
 6-311+G(2d,p)
 ****
 33  35  36  37  38 0
 6-311+G(2d,p)
 ****
 1  2  13  14  15  16  17  18  19  20  21  22  24  25 0
 3-21G
 ****
 27  28  29  32  34  39  40  41  42  43  44  45  46  47  48  49 0
 3-21G
 ****


