%nproc=1
%NoSave
%Mem=1900MB
#P OB98/GEN NMR

erre ene a

0 1
  C      588.945    -377.530    -264.711
  O      588.541    -378.808    -264.254
  H      589.937    -377.283    -264.314
  H      588.997    -377.548    -265.802
  H      588.223    -376.771    -264.401
  P      588.393    -378.995    -262.666
  C      586.257    -380.404    -263.124
  O      587.510    -380.323    -262.466
  C      585.959    -381.856    -263.486
  O      586.811    -382.273    -264.584
  C      586.218    -382.850    -262.359
  O      585.143    -382.900    -261.435
  C      586.328    -384.144    -263.152
  O      585.017    -384.599    -263.534
  C      587.110    -383.685    -264.388
  N      591.004    -386.995    -264.752
  C      589.676    -387.140    -264.924
  N      588.704    -386.218    -264.807
  C      589.230    -385.026    -264.465
  C      590.560    -384.719    -264.253
  C      591.483    -385.774    -264.411
  N      592.837    -385.625    -264.224
  N      590.709    -383.395    -263.884
  C      589.487    -382.905    -263.919
  N      588.553    -383.849    -264.255
  O      587.384    -377.819    -262.244
  O      589.665    -378.961    -261.884
  H      585.148    -385.224    -264.274
  H      587.470    -377.637    -261.289
  H      589.344    -388.148    -265.196
  H      589.224    -381.873    -263.697
  H      586.810    -384.215    -265.299
  H      586.801    -384.953    -262.581
  H      587.170    -382.652    -261.857
  H      584.922    -381.916    -263.834
  H      586.289    -379.798    -264.035
  H      593.382    -386.478    -264.177
  H      593.179    -384.772    -263.825
  H      585.476    -380.011    -262.461
  P      585.370    -383.741    -260.090
  C      583.297    -382.807    -258.813
  O      583.916    -383.937    -259.442
  O      586.076    -382.691    -259.114
  O      586.177    -384.992    -260.256
  H      586.631    -383.145    -258.449
  H      582.339    -383.092    -258.431
  H      583.176    -382.022    -259.530
  H      583.914    -382.464    -258.009

 6  7  8  9  10  11  12  13  14  15  25  28  32  33  34  35 0
 6-311+G(2d,p)
 ****
 36  39  40 0
 6-311+G(2d,p)
 ****
 1  2  3  4  5  16  17  18  19  20  21  22  23  24 0
 3-21G
 ****
 26  27  29  30  31  37  38  41  42  43  44  45  46  47 0
 3-21G
 ****
 48 0
 3-21G
 ****


