%nproc=1
%NoSave
%Mem=1900MB
#P OB98/GEN NMR

erre ene a

0 1
  C      293.946     -45.114     186.473
  O      294.891     -44.511     185.586
  P      294.699     -44.821     184.016
  C      297.188     -45.285     183.404
  O      296.066     -44.420     183.274
  C      298.378     -44.752     182.611
  O      297.991     -44.389     181.272
  C      299.005     -43.489     183.193
  O      299.864     -43.784     184.285
  C      299.797     -42.974     182.002
  O      301.063     -43.657     181.923
  C      298.898     -43.360     180.811
  N      298.888     -39.319     177.752
  C      299.896     -40.224     178.021
  N      301.059     -40.044     177.350
  N      299.776     -41.221     178.864
  C      298.546     -41.292     179.435
  C      297.471     -40.461     179.251
  C      297.627     -39.341     178.339
  O      296.776     -38.494     178.093
  N      296.387     -40.862     179.999
  C      296.809     -41.956     180.603
  N      298.114     -42.253     180.307
  O      293.676     -43.678     183.549
  O      294.178     -46.192     183.727
  H      301.409     -43.505     181.022
  H      293.167     -43.985     182.773
  H      299.034     -38.565     177.101
  H      296.203     -42.567     181.265
  H      299.479     -43.783     179.984
  H      300.018     -41.905     182.074
  H      301.192     -39.343     176.639
  H      298.227     -42.759     183.467
  H      301.795     -40.722     177.510
  H      299.134     -45.548     182.552
  H      296.928     -46.283     183.041
  H      297.436     -45.390     184.465
  P      299.575     -43.033     185.670
  C      301.997     -42.491     186.436
  O      300.855     -43.319     186.588
  O      298.417     -43.918     186.333
  O      299.169     -41.597     185.532
  H      297.858     -43.371     186.917
  H      301.717     -41.440     186.340
  H      302.552     -42.809     185.546
  H      302.639     -42.608     187.318
  H      294.175     -44.837     187.481
  H      293.995     -46.178     186.376
  H      292.961     -44.778     186.226

 3  4  5  6  7  8  9  10  11  12  23  26  30  31  33  0
 6-311+G(2d,p)
 ****
 35  36  37  38 0
 6-311+G(2d,p)
 ****
 1  2  13  14  15  16  17  18  19  20  21  22  24  25  27  28  29 0
 3-21G
 ****
 32  34  39  40  41  42  43  44  45  46  47  48  49 0
 3-21G
 ****


