%nproc=1
%NoSave
%Mem=1900MB
#P OB98/GEN NMR

erre ene a

0 1
  C     -229.448    -226.827    -124.098
  O     -230.262    -227.558    -123.200
  H     -230.093    -226.237    -124.755
  H     -228.853    -227.511    -124.709
  H     -228.790    -226.152    -123.546
  P     -229.496    -228.540    -122.187
  C     -229.506    -226.594    -120.474
  O     -228.742    -227.596    -121.129
  C     -228.892    -226.256    -119.118
  O     -229.508    -225.077    -118.558
  C     -229.027    -227.359    -118.076
  O     -228.000    -228.325    -118.223
  C     -228.905    -226.562    -116.784
  O     -227.523    -226.270    -116.486
  C     -229.671    -225.277    -117.127
  N     -233.017    -224.567    -113.414
  C     -231.638    -224.538    -113.388
  N     -231.057    -224.313    -112.187
  N     -230.886    -224.724    -114.441
  C     -231.597    -224.997    -115.560
  C     -232.962    -225.056    -115.717
  C     -233.783    -224.794    -114.552
  O     -235.007    -224.725    -114.528
  N     -233.304    -225.341    -117.014
  C     -232.147    -225.486    -117.632
  N     -231.081    -225.291    -116.790
  O     -228.298    -229.130    -123.072
  O     -230.325    -229.632    -121.605
  H     -227.161    -225.693    -117.182
  H     -228.166    -230.067    -122.834
  H     -233.544    -224.388    -112.578
  H     -232.028    -225.720    -118.680
  H     -229.240    -224.399    -116.628
  H     -229.293    -227.118    -115.930
  H     -231.554    -224.453    -111.318
  H     -230.019    -227.826    -118.121
  H     -230.048    -224.365    -112.157
  H     -227.835    -226.014    -119.286
  H     -230.527    -226.963    -120.330
  H     -229.535    -225.697    -121.101
  P     -228.157    -229.721    -117.453
  C     -230.083    -230.235    -119.120
  O     -229.618    -230.304    -117.778
  O     -228.263    -229.274    -115.920
  O     -227.027    -230.676    -117.655
  H     -227.426    -229.471    -115.459
  H     -231.064    -230.659    -119.180
  H     -229.419    -230.782    -119.756
  H     -230.117    -229.213    -119.434

 6  7  8  9  10  11  12  13  14  15  26  29  33  34 0
 6-311+G(2d,p)
 ****
 36  38  39  40  41 0
 6-311+G(2d,p)
 ****
 1  2  3  4  5  16  17  18  19  20  21  22  23  24  25 0
 3-21G
 ****
 27  28  30  31  32  35  37  42  43  44  45  46  47 0
 3-21G
 ****
 48  49 0
 3-21G
 ****


