%nproc=1
%NoSave
%Mem=1900MB
#P OB98/GEN NMR

erre ene a

0 1
  C      119.541    -279.984    -121.117
  O      119.183    -280.751    -119.975
  P      119.497    -280.144    -118.525
  C      117.467    -278.836    -117.582
  O      118.639    -278.794    -118.385
  C      117.392    -277.625    -116.653
  O      118.522    -277.657    -115.741
  C      117.427    -276.271    -117.370
  O      116.624    -275.364    -116.606
  C      118.882    -275.861    -117.255
  O      119.063    -274.457    -117.421
  C      119.208    -276.393    -115.863
  N      123.385    -274.545    -113.567
  C      122.097    -274.146    -113.543
  N      121.039    -274.689    -114.179
  C      121.419    -275.755    -114.906
  C      122.701    -276.257    -115.056
  C      123.720    -275.606    -114.339
  N      125.033    -276.017    -114.355
  N      122.699    -277.344    -115.905
  C      121.441    -277.496    -116.261
  N      120.629    -276.574    -115.663
  O      121.000    -279.617    -118.683
  O      119.374    -281.105    -117.392
  H      118.639    -274.191    -118.258
  H      121.603    -280.163    -118.142
  H      121.884    -273.278    -112.923
  H      121.070    -278.247    -116.944
  H      118.837    -275.730    -115.070
  H      119.473    -276.370    -118.025
  H      117.079    -276.304    -118.407
  H      116.483    -277.713    -116.045
  H      117.493    -279.743    -116.971
  H      125.675    -275.586    -113.710
  H      125.258    -276.914    -114.771
  H      116.584    -278.875    -118.225
  P      115.805    -274.254    -117.421
  C      113.645    -275.575    -117.984
  O      114.867    -275.038    -118.453
  O      116.921    -273.583    -118.353
  O      115.125    -273.241    -116.559
  H      116.675    -272.662    -118.555
  H      112.908    -275.530    -118.789
  H      113.262    -275.023    -117.120
  H      113.799    -276.619    -117.699
  H      119.270    -280.517    -122.004
  H      120.597    -279.811    -121.113
  H      119.026    -279.047    -121.093

 3  4  5  6  7  8  9  10  11  12  22  25  29  30  31  32 0
 6-311+G(2d,p)
 ****
 33  36  37 0
 6-311+G(2d,p)
 ****
 1  2  13  14  15  16  17  18  19  20  21  23  24  26 0
 3-21G
 ****
 27  28  34  35  38  39  40  41  42  43  44  45  46  47  48 0
 3-21G
 ****


