%nproc=1
%NoSave
%Mem=1900MB
#P OB98/GEN NMR

erre ene a

0 1
  C     -293.918     312.591    -394.048
  O     -293.333     312.542    -392.759
  H     -293.125     312.715    -394.789
  H     -294.601     313.443    -394.117
  H     -294.456     311.663    -394.254
  P     -294.336     312.336    -391.527
  C     -294.774     313.893    -389.499
  O     -294.482     313.803    -390.888
  C     -294.143     315.149    -388.905
  O     -292.711     315.121    -389.044
  C     -294.591     316.452    -389.559
  O     -295.857     316.861    -389.054
  C     -293.480     317.388    -389.125
  O     -293.709     317.821    -387.770
  C     -292.235     316.485    -389.181
  N     -288.900     319.347    -391.836
  C     -289.625     319.610    -390.726
  N     -290.521     318.819    -390.101
  C     -290.646     317.639    -390.731
  C     -289.976     317.233    -391.877
  C     -289.057     318.143    -392.432
  N     -288.311     317.867    -393.559
  N     -290.357     315.958    -392.244
  C     -291.207     315.586    -391.306
  N     -291.441     316.579    -390.393
  O     -293.984     311.237    -390.581
  O     -295.731     312.154    -392.294
  H     -292.840     317.909    -387.333
  H     -295.780     312.753    -393.059
  H     -289.459     320.586    -390.280
  H     -291.665     314.604    -391.238
  H     -291.554     316.679    -388.341
  H     -293.431     318.290    -389.741
  H     -294.588     316.366    -390.653
  H     -294.368     315.162    -387.829
  H     -294.401     313.009    -388.975
  H     -287.813     318.632    -393.984
  H     -288.517     317.023    -394.066
  H     -295.862     313.930    -389.393
  P     -296.673     318.046    -389.767
  C     -296.898     320.573    -389.329
  O     -296.066     319.423    -389.197
  O     -298.159     317.936    -389.667
  O     -296.173     318.029    -391.281
  H     -296.917     318.214    -391.890
  H     -296.397     321.425    -388.919
  H     -297.815     320.412    -388.803
  H     -297.106     320.746    -390.364

 6  7  8  9  10  11  12  13  14  15  25  28  32  33  34  35 0
 6-311+G(2d,p)
 ****
 36  39  40 0
 6-311+G(2d,p)
 ****
 1  2  3  4  5  16  17  18  19  20  21  22  23  24 0
 3-21G
 ****
 26  27  29  30  31  37  38  41  42  43  44  45  46  47 0
 3-21G
 ****
 48 0
 3-21G
 ****


