%nproc=1
%NoSave
%Mem=1900MB
#P OB98/GEN NMR

erre ene a

0 1
  C      192.852    -158.885     250.958
  O      193.506    -159.140     249.726
  P      194.424    -157.976     249.112
  C      194.095    -155.366     249.074
  O      193.512    -156.658     249.108
  C      193.408    -154.505     248.010
  O      191.975    -154.592     248.158
  C      193.736    -153.020     248.089
  O      195.019    -152.732     247.558
  C      192.575    -152.419     247.306
  O      192.817    -152.526     245.892
  C      191.407    -153.340     247.717
  N      190.547    -152.757     248.744
  C      189.345    -152.212     248.302
  O      189.000    -152.209     247.122
  N      188.555    -151.651     249.270
  C      188.870    -151.525     250.592
  O      188.144    -150.973     251.409
  C      190.168    -152.088     250.993
  C      190.933    -152.671     250.066
  O      194.491    -158.432     247.581
  O      195.744    -157.849     249.794
  H      193.708    -158.949     247.323
  H      192.883    -153.481     245.696
  H      187.667    -151.269     248.978
  H      190.455    -152.000     252.033
  H      191.896    -153.082     250.342
  H      190.788    -153.579     246.843
  H      192.416    -151.360     247.533
  H      193.687    -152.683     249.132
  H      193.674    -154.905     247.023
  H      195.159    -155.461     248.839
  H      193.996    -154.904     250.063
  P      195.595    -151.253     247.829
  C      194.937    -148.869     246.988
  O      194.682    -150.256     246.972
  O      196.980    -151.308     247.029
  O      195.730    -150.920     249.277
  H      196.901    -151.751     246.167
  H      194.474    -148.416     246.107
  H      196.008    -148.659     246.971
  H      194.493    -148.426     247.885
  H      192.280    -159.743     251.243
  H      192.201    -158.043     250.849
  H      193.581    -158.676     251.712

 3  4  5  6  7  8  9  10  11  12  13  24  28  29  30  31  32 0
 6-311+G(2d,p)
 ****
 33  34 0
 6-311+G(2d,p)
 ****
 1  2  14  15  16  17  18  19  20  21  22  23  25  26  27 0
 3-21G
 ****
 35  36  37  38  39  40  41  42  43  44  45 0
 3-21G
 ****


