%nproc=1
%NoSave
%Mem=1900MB
#P OB98/GEN NMR

erre ene a

0 1
  C     -163.490    1999.383     651.944
  O     -162.434    1999.689     652.844
  P     -162.778    2000.783     653.984
  C     -163.199    1999.060     655.864
  O     -163.743    2000.091     655.059
  C     -164.099    1998.714     657.040
  O     -164.316    1999.891     657.880
  C     -165.487    1998.195     656.649
  O     -165.886    1997.215     657.609
  C     -166.353    1999.421     656.766
  O     -167.734    1999.074     656.861
  C     -165.750    2000.035     658.036
  N     -169.254    2003.169     659.941
  C     -169.251    2001.798     659.813
  N     -170.353    2001.162     660.312
  N     -168.301    2001.126     659.239
  C     -167.260    2001.891     658.832
  C     -167.111    2003.260     658.916
  C     -168.207    2003.987     659.528
  O     -168.252    2005.214     659.644
  N     -165.913    2003.677     658.403
  C     -165.355    2002.552     657.966
  N     -166.104    2001.428     658.237
  O     -163.751    2001.801     653.200
  O     -161.576    2001.487     654.537
  H     -167.830    1998.371     657.524
  H     -163.255    2002.599     652.935
  H     -170.031    2003.659     660.372
  H     -164.419    2002.494     657.440
  H     -166.062    1999.517     658.935
  H     -166.236    2000.097     655.919
  H     -171.107    2001.617     660.788
  H     -165.532    1997.755     655.624
  H     -170.355    2000.132     660.259
  H     -163.583    1997.948     657.658
  H     -162.207    1999.379     656.246
  H     -162.985    1998.180     655.222
  P     -166.092    1995.707     657.132
  C     -164.081    1994.917     658.562
  O     -164.696    1994.965     657.296
  O     -166.264    1995.883     655.533
  O     -167.268    1995.038     657.740
  H     -166.956    1995.248     655.230
  H     -163.429    1994.058     658.595
  H     -164.816    1994.896     659.346
  H     -163.450    1995.822     658.667
  H     -163.155    1998.653     651.237
  H     -163.787    2000.271     651.427
  H     -164.323    1998.994     652.491

 3  4  5  6  7  8  9  10  11  12  23  26  30  31 0
 6-311+G(2d,p)
 ****
 33  35  36  37  38 0
 6-311+G(2d,p)
 ****
 1  2  13  14  15  16  17  18  19  20  21  22  24  25 0
 3-21G
 ****
 27  28  29  32  34  39  40  41  42  43  44  45  46  47  48  49 0
 3-21G
 ****


