%nproc=1
%NoSave
%Mem=1900MB
#P OB98/GEN NMR

erre ene a

0 1
  C     -657.471     497.647     400.828
  O     -656.883     497.273     402.059
  H     -658.520     497.340     400.835
  H     -656.967     497.140     400.000
  H     -657.423     498.728     400.691
  P     -655.361     497.695     402.353
  C     -655.909     500.186     402.673
  O     -655.418     499.002     403.289
  C     -656.885     500.903     403.608
  O     -658.065     500.078     403.772
  C     -656.310     501.184     404.998
  O     -656.790     502.459     405.434
  C     -656.920     500.091     405.856
  O     -657.019     500.471     407.229
  C     -658.271     499.873     405.187
  N     -660.576     496.956     408.608
  C     -660.269     498.304     408.646
  N     -660.597     498.974     409.772
  N     -659.681     498.939     407.665
  C     -659.419     498.153     406.591
  C     -659.666     496.813     406.436
  C     -660.307     496.116     407.533
  O     -660.590     494.916     407.563
  N     -659.225     496.359     405.214
  C     -658.710     497.432     404.637
  N     -658.789     498.537     405.437
  O     -654.491     497.835     401.146
  O     -654.829     496.557     403.343
  H     -657.051     499.648     407.758
  H     -654.298     495.899     402.859
  H     -661.020     496.519     409.398
  H     -658.265     497.453     403.654
  H     -659.033     500.584     405.529
  H     -656.295     499.187     405.798
  H     -661.065     498.554     410.558
  H     -655.220     501.172     405.022
  H     -660.403     499.972     409.815
  H     -657.214     501.833     403.120
  H     -656.420     499.908     401.750
  H     -655.070     500.846     402.431
  P     -655.735     503.548     405.960
  C     -655.235     504.737     403.729
  O     -655.834     504.838     405.016
  O     -654.348     503.039     406.194
  O     -656.397     504.062     407.326
  H     -655.686     504.327     407.939
  H     -655.369     505.658     403.200
  H     -655.696     503.941     403.182
  H     -654.190     504.536     403.837

 6  7  8  9  10  11  12  13  14  15  26  29  33  34 0
 6-311+G(2d,p)
 ****
 36  38  39  40  41 0
 6-311+G(2d,p)
 ****
 1  2  3  4  5  16  17  18  19  20  21  22  23  24  25 0
 3-21G
 ****
 27  28  30  31  32  35  37  42  43  44  45  46  47 0
 3-21G
 ****
 48  49 0
 3-21G
 ****


