%nproc=1
%NoSave
%Mem=1900MB
#P OB98/GEN NMR

erre ene a

0 1
  C      263.509    -590.401    -377.658
  O      263.438    -591.742    -378.098
  H      263.046    -589.757    -378.412
  H      264.549    -590.087    -377.535
  H      262.971    -590.284    -376.717
  P      264.191    -592.867    -377.248
  C      261.811    -593.627    -376.572
  O      263.107    -594.023    -377.005
  C      260.788    -594.692    -376.937
  O      260.353    -594.530    -378.308
  C      261.330    -596.117    -376.842
  O      261.418    -596.526    -375.498
  C      260.330    -596.871    -377.694
  O      259.126    -597.139    -376.975
  C      260.074    -595.843    -378.837
  N      260.871    -596.130    -380.032
  C      260.887    -597.447    -380.460
  O      260.253    -598.318    -379.858
  N      261.636    -597.768    -381.571
  C      262.291    -596.849    -382.200
  N      263.027    -597.227    -383.282
  C      262.298    -595.425    -381.785
  C      261.569    -595.141    -380.698
  O      264.900    -592.406    -376.006
  O      265.202    -593.531    -378.303
  H      258.530    -597.567    -377.618
  H      266.054    -593.056    -378.295
  H      262.855    -594.690    -382.334
  H      261.509    -594.121    -380.319
  H      259.011    -595.852    -379.123
  H      260.742    -597.814    -378.039
  H      262.315    -596.174    -377.327
  H      259.904    -594.571    -376.289
  H      263.002    -598.205    -383.525
  H      261.576    -592.682    -377.081
  H      263.493    -596.577    -383.890
  H      261.795    -593.450    -375.489
  P      262.131    -597.920    -375.108
  C      264.328    -596.587    -374.808
  O      263.403    -597.515    -374.220
  O      262.393    -598.828    -376.256
  O      261.121    -598.542    -374.007
  H      260.294    -598.897    -374.450
  H      265.128    -596.398    -374.123
  H      263.822    -595.670    -375.028
  H      264.723    -597.002    -375.712

 6  7  8  9  10  11  12  13  14  15  16  26  30  31  32  33  35 0
 6-311+G(2d,p)
 ****
 37  38 0
 6-311+G(2d,p)
 ****
 1  2  3  4  5  17  18  19  20  21  22  23  24  25 0
 3-21G
 ****
 27  28  29  34  36  39  40  41  42  43  44  45  46 0
 3-21G
 ****


