%nproc=1
%NoSave
%Mem=1900MB
#P OB98/GEN NMR

erre ene a

0 1
  C       55.504    -214.928    -132.411
  O       56.159    -214.366    -131.292
  H       54.534    -215.319    -132.090
  H       56.097    -215.750    -132.822
  H       55.340    -214.164    -133.177
  P       57.620    -213.756    -131.552
  C       59.580    -214.958    -130.351
  O       58.647    -214.983    -131.423
  C       58.869    -215.201    -129.023
  O       57.926    -216.289    -129.138
  C       59.798    -215.551    -127.867
  O       60.364    -214.386    -127.290
  C       58.844    -216.270    -126.924
  O       58.060    -215.336    -126.152
  C       57.955    -217.050    -127.903
  N       56.505    -221.870    -128.315
  C       55.759    -220.730    -128.098
  N       54.431    -220.910    -127.911
  N       56.263    -219.527    -128.059
  C       57.606    -219.505    -128.229
  C       58.454    -220.563    -128.467
  C       57.875    -221.888    -128.540
  O       58.472    -222.928    -128.794
  N       59.750    -220.137    -128.604
  C       59.691    -218.834    -128.411
  N       58.414    -218.405    -128.163
  O       57.908    -212.896    -130.231
  O       57.758    -212.927    -132.786
  H       57.718    -214.642    -126.742
  H       58.480    -212.140    -130.460
  H       56.054    -222.767    -128.353
  H       60.539    -218.163    -128.441
  H       56.921    -217.131    -127.545
  H       59.377    -216.895    -126.207
  H       54.053    -221.796    -127.604
  H       60.579    -216.250    -128.194
  H       53.879    -220.080    -127.730
  H       58.292    -214.296    -128.788
  H       60.064    -213.977    -130.325
  H       60.340    -215.728    -130.517
  P       61.577    -214.579    -126.255
  C       60.942    -213.771    -123.866
  O       60.909    -214.825    -124.817
  O       62.189    -213.105    -126.127
  O       62.599    -215.578    -126.674
  H       63.085    -213.149    -125.743
  H       60.460    -214.088    -122.965
  H       60.432    -212.917    -124.262
  H       61.959    -213.513    -123.655

 6  7  8  9  10  11  12  13  14  15  26  29  33  34 0
 6-311+G(2d,p)
 ****
 36  38  39  40  41 0
 6-311+G(2d,p)
 ****
 1  2  3  4  5  16  17  18  19  20  21  22  23  24  25 0
 3-21G
 ****
 27  28  30  31  32  35  37  42  43  44  45  46  47 0
 3-21G
 ****
 48  49 0
 3-21G
 ****


