%nproc=1
%NoSave
%Mem=1900MB
#P OB98/GEN NMR

erre ene a

0 1
  C        5.659    -190.437     306.070
  O        6.577    -190.290     304.993
  P        7.985    -189.579     305.306
  C        8.212    -187.097     304.567
  O        7.644    -188.017     305.494
  C        7.440    -187.111     303.252
  O        6.031    -186.912     303.505
  C        7.836    -186.014     302.270
  O        8.997    -186.356     301.525
  C        6.616    -185.988     301.360
  O        6.675    -187.072     300.418
  C        5.470    -186.214     302.356
  N        3.087    -181.948     300.838
  C        3.660    -182.958     300.136
  N        4.293    -184.056     300.621
  C        4.321    -184.036     301.963
  C        3.814    -183.059     302.801
  C        3.161    -181.972     302.189
  N        2.555    -180.962     302.898
  N        4.043    -183.375     304.122
  C        4.667    -184.536     304.086
  N        4.846    -184.983     302.800
  O        8.737    -189.632     303.895
  O        8.781    -190.208     306.399
  H        5.808    -187.094     299.954
  H        9.700    -189.571     304.035
  H        3.606    -182.878     299.054
  H        4.989    -185.097     304.954
  H        4.679    -186.850     301.942
  H        6.543    -185.062     300.776
  H        7.945    -185.047     302.775
  H        7.560    -188.099     302.792
  H        9.253    -187.384     304.365
  H        1.945    -180.324     302.393
  H        2.431    -181.090     303.901
  H        8.205    -186.097     305.004
  P        9.912    -185.142     301.013
  C        9.413    -184.619     298.507
  O        9.064    -184.416     299.868
  O       11.086    -185.882     300.212
  O       10.437    -184.266     302.109
  H       11.889    -185.331     300.199
  H        8.581    -184.326     297.881
  H        9.651    -185.675     298.314
  H       10.284    -183.998     298.257
  H        4.772    -190.923     305.719
  H        5.407    -189.472     306.458
  H        6.107    -191.027     306.842

 3  4  5  6  7  8  9  10  11  12  22  25  29  30  31  32 0
 6-311+G(2d,p)
 ****
 33  36  37 0
 6-311+G(2d,p)
 ****
 1  2  13  14  15  16  17  18  19  20  21  23  24  26 0
 3-21G
 ****
 27  28  34  35  38  39  40  41  42  43  44  45  46  47  48 0
 3-21G
 ****


