%nproc=1
%NoSave
%Mem=1900MB
#P OB98/GEN NMR

erre ene a

0 1
  C     -201.250     182.309     -59.440
  O     -202.197     182.646     -58.441
  P     -201.631     183.089     -56.995
  C     -202.840     185.402     -56.666
  O     -201.653     184.691     -56.989
  C     -202.949     186.668     -57.532
  O     -203.104     186.308     -58.911
  C     -204.145     187.559     -57.202
  O     -203.930     188.316     -56.029
  C     -204.266     188.374     -58.480
  O     -203.302     189.450     -58.472
  C     -203.899     187.335     -59.555
  N     -205.056     186.778     -60.241
  C     -204.958     186.630     -61.619
  O     -203.963     186.948     -62.256
  N     -206.073     186.124     -62.249
  C     -207.260     185.814     -61.655
  O     -208.246     185.414     -62.270
  C     -207.326     186.014     -60.196
  C     -206.233     186.480     -59.567
  O     -200.088     182.705     -57.159
  O     -202.339     182.427     -55.863
  H     -199.797     182.732     -58.095
  H     -203.442     189.934     -57.627
  H     -206.014     185.989     -63.247
  H     -208.246     185.799     -59.689
  H     -206.263     186.646     -58.502
  H     -203.235     187.786     -60.321
  H     -205.254     188.822     -58.609
  H     -205.049     186.941     -57.071
  H     -202.013     187.237     -57.434
  H     -202.799     185.687     -55.611
  H     -203.712     184.752     -56.835
  P     -204.963     188.095     -54.816
  C     -203.236     188.382     -52.867
  O     -204.096     187.517     -53.591
  O     -205.785     186.825     -55.348
  O     -205.806     189.288     -54.514
  H     -205.214     186.150     -55.762
  H     -203.024     187.930     -51.896
  H     -203.674     189.360     -52.713
  H     -202.278     188.494     -53.427
  H     -201.762     182.037     -60.339
  H     -200.656     181.485     -59.105
  H     -200.617     183.151     -59.630

 3  4  5  6  7  8  9  10  11  12  13  24  28  29  30  31  32 0
 6-311+G(2d,p)
 ****
 33  34 0
 6-311+G(2d,p)
 ****
 1  2  14  15  16  17  18  19  20  21  22  23  25  26  27 0
 3-21G
 ****
 35  36  37  38  39  40  41  42  43  44  45 0
 3-21G
 ****


