%nproc=1
%NoSave
%Mem=1900MB
#P OB98/GEN NMR

erre ene a

0 1
  C     -810.075    -194.750     -21.454
  O     -808.964    -194.649     -22.338
  P     -808.119    -193.270     -22.321
  C     -808.575    -190.845     -23.124
  O     -809.105    -192.141     -22.865
  C     -809.205    -190.259     -24.386
  O     -810.646    -190.216     -24.273
  C     -808.780    -188.817     -24.685
  O     -807.518    -188.755     -25.323
  C     -809.892    -188.387     -25.637
  O     -809.617    -188.878     -26.964
  C     -811.112    -189.077     -25.034
  N     -814.672    -185.464     -24.975
  C     -814.246    -186.279     -26.019
  N     -814.813    -186.051     -27.225
  N     -813.359    -187.238     -25.894
  C     -812.863    -187.327     -24.624
  C     -813.220    -186.598     -23.505
  C     -814.194    -185.543     -23.674
  O     -814.564    -184.767     -22.806
  N     -812.504    -187.001     -22.407
  C     -811.749    -187.997     -22.840
  N     -811.906    -188.201     -24.186
  O     -807.086    -193.471     -23.529
  O     -807.433    -192.973     -21.027
  H     -808.785    -188.446     -27.250
  H     -806.359    -192.827     -23.443
  H     -815.353    -184.759     -25.136
  H     -811.065    -188.559     -22.227
  H     -811.784    -189.479     -25.818
  H     -809.971    -187.298     -25.713
  H     -815.459    -185.300     -27.408
  H     -808.814    -188.210     -23.774
  H     -814.482    -186.589     -28.025
  H     -808.953    -190.906     -25.232
  H     -807.498    -190.924     -23.256
  H     -808.776    -190.192     -22.265
  P     -806.488    -187.658     -24.756
  C     -806.290    -185.084     -25.002
  O     -807.050    -186.242     -25.250
  O     -805.172    -187.901     -25.649
  O     -806.199    -187.784     -23.293
  H     -804.385    -187.617     -25.180
  H     -806.671    -184.269     -25.625
  H     -805.238    -185.246     -25.259
  H     -806.356    -184.792     -23.948
  H     -810.538    -195.708     -21.571
  H     -810.784    -193.981     -21.682
  H     -809.739    -194.637     -20.444

 3  4  5  6  7  8  9  10  11  12  23  26  30  31 0
 6-311+G(2d,p)
 ****
 33  35  36  37  38 0
 6-311+G(2d,p)
 ****
 1  2  13  14  15  16  17  18  19  20  21  22  24  25 0
 3-21G
 ****
 27  28  29  32  34  39  40  41  42  43  44  45  46  47  48  49 0
 3-21G
 ****


