%nproc=1
%NoSave
%Mem=1900MB
#P OB98/GEN NMR

erre ene a

0 1
  C     -420.649     264.210      94.747
  O     -419.476     264.424      95.540
  P     -419.536     264.897      97.073
  C     -418.248     262.973      98.216
  O     -418.243     264.346      97.845
  C     -416.890     262.309      97.967
  O     -416.589     262.281      96.556
  C     -415.706     263.019      98.619
  O     -415.658     262.761     100.012
  C     -414.543     262.436      97.822
  O     -414.157     261.150      98.329
  C     -415.151     262.310      96.413
  N     -414.731     263.378      95.518
  C     -413.593     263.131      94.746
  O     -412.957     262.082      94.886
  N     -413.175     264.096      93.859
  C     -413.801     265.231      93.802
  N     -413.349     266.140      92.899
  C     -414.958     265.561      94.657
  C     -415.364     264.597      95.481
  O     -420.828     264.584      97.754
  O     -419.292     266.481      97.025
  H     -413.420     260.841      97.768
  H     -419.773     266.895      97.766
  H     -415.430     266.529      94.598
  H     -416.207     264.755      96.140
  H     -414.877     261.342      95.964
  H     -413.656     263.074      97.852
  H     -415.773     264.098      98.428
  H     -416.952     261.273      98.321
  H     -412.561     265.883      92.322
  H     -419.015     262.459      97.617
  H     -413.766     267.058      92.767
  H     -418.524     262.892      99.274
  P     -416.001     263.940     101.044
  C     -417.763     262.222     101.793
  O     -416.946     263.317     102.179
  O     -416.489     265.213     100.442
  O     -414.624     264.166     101.827
  H     -414.559     265.111     102.085
  H     -418.037     261.654     102.690
  H     -417.238     261.568     101.094
  H     -418.675     262.596     101.321
  H     -420.363     263.900      93.764
  H     -421.209     265.120      94.686
  H     -421.251     263.450      95.199

 3  4  5  6  7  8  9  10  11  12  13  23  27  28  29  30  32 0
 6-311+G(2d,p)
 ****
 34  35 0
 6-311+G(2d,p)
 ****
 1  2  14  15  16  17  18  19  20  21  22  24  25  26 0
 3-21G
 ****
 31  33  36  37  38  39  40  41  42  43  44  45  46 0
 3-21G
 ****


