%nproc=1
%NoSave
%Mem=1900MB
#P OB98/GEN NMR

erre ene a

0 1
  C      372.819    -446.856    -104.667
  O      374.096    -447.092    -104.108
  H      372.185    -447.722    -104.468
  H      372.899    -446.718    -105.749
  H      372.367    -445.971    -104.209
  P      375.199    -445.947    -104.324
  C      375.294    -446.912    -106.723
  O      376.030    -446.428    -105.607
  C      376.207    -447.680    -107.677
  O      376.945    -446.760    -108.503
  C      377.243    -448.557    -106.982
  O      376.676    -449.805    -106.617
  C      378.274    -448.719    -108.089
  O      377.844    -449.743    -109.007
  C      378.244    -447.346    -108.784
  N      383.293    -446.414    -108.599
  C      382.596    -447.527    -108.917
  N      381.260    -447.723    -108.894
  C      380.620    -446.606    -108.495
  C      381.198    -445.399    -108.133
  C      382.602    -445.321    -108.198
  N      383.305    -444.185    -107.869
  N      380.230    -444.481    -107.772
  C      379.091    -445.109    -107.976
  N      379.275    -446.409    -108.376
  O      375.998    -445.585    -103.119
  O      374.296    -444.764    -104.922
  H      378.602    -449.934    -109.587
  H      373.644    -445.118    -105.553
  H      383.193    -448.376    -109.236
  H      378.108    -444.663    -107.864
  H      378.328    -447.444    -109.877
  H      379.255    -449.020    -107.710
  H      377.709    -448.045    -106.130
  H      375.573    -448.281    -108.341
  H      374.823    -446.078    -107.257
  H      384.302    -444.273    -107.759
  H      382.798    -443.416    -107.451
  H      374.507    -447.568    -106.342
  P      376.757    -450.343    -105.109
  C      379.300    -450.749    -105.105
  O      378.009    -451.349    -105.100
  O      375.479    -450.888    -104.577
  O      377.297    -449.092    -104.273
  H      377.133    -449.232    -103.318
  H      380.049    -451.513    -105.098
  H      379.411    -450.134    -104.237
  H      379.411    -450.149    -105.984

 6  7  8  9  10  11  12  13  14  15  25  28  32  33  34  35 0
 6-311+G(2d,p)
 ****
 36  39  40 0
 6-311+G(2d,p)
 ****
 1  2  3  4  5  16  17  18  19  20  21  22  23  24 0
 3-21G
 ****
 26  27  29  30  31  37  38  41  42  43  44  45  46  47 0
 3-21G
 ****
 48 0
 3-21G
 ****


