%nproc=1
%NoSave
%Mem=1900MB
#P OB98/GEN NMR

erre ene a

0 1
  C      196.713     143.888    -284.681
  O      198.097     143.581    -284.876
  P      199.114     143.984    -283.703
  C      199.177     141.977    -282.048
  O      199.798     142.650    -283.137
  C      200.236     141.298    -281.177
  O      199.652     140.732    -279.987
  C      200.926     140.135    -281.873
  O      201.898     140.609    -282.785
  C      201.511     139.361    -280.696
  O      202.835     139.815    -280.367
  C      200.523     139.676    -279.544
  N      199.772     138.509    -279.121
  C      200.529     137.431    -278.653
  O      201.758     137.493    -278.642
  N      199.873     136.299    -278.238
  C      198.577     136.242    -278.305
  N      197.986     135.092    -277.884
  C      197.742     137.347    -278.819
  C      198.398     138.440    -279.205
  O      198.143     144.440    -282.515
  O      200.070     145.073    -284.077
  H      203.183     139.167    -279.720
  H      198.561     145.146    -281.990
  H      196.668     137.253    -278.862
  H      197.869     139.303    -279.594
  H      201.068     140.063    -278.674
  H      201.590     138.294    -280.919
  H      200.183     139.517    -282.390
  H      200.979     142.051    -280.879
  H      198.589     134.352    -277.543
  H      198.466     141.236    -282.417
  H      196.987     134.936    -277.899
  H      198.598     142.704    -281.464
  P      201.921     139.965    -284.249
  C      200.303     141.528    -285.487
  O      201.656     141.192    -285.248
  O      200.516     139.193    -284.298
  O      203.063     139.065    -284.588
  H      200.450     138.674    -285.118
  H      200.269     142.490    -286.004
  H      199.755     141.616    -284.544
  H      199.839     140.771    -286.121
  H      196.153     143.567    -285.534
  H      196.596     144.944    -284.554
  H      196.355     143.382    -283.809

 3  4  5  6  7  8  9  10  11  12  13  21  23  27  28  29  30  32 0
 6-311+G(2d,p)
 ****
 34  35 0
 6-311+G(2d,p)
 ****
 1  2  14  15  16  17  18  19  20  22  24  25  26 0
 3-21G
 ****
 31  33  36  37  38  39  40  41  42  43  44  45  46 0
 3-21G
 ****


