%nproc=1
%NoSave
%Mem=1900MB
#P OB98/GEN NMR

erre ene a

0 1
  C      -87.704      48.031     -21.193
  O      -88.398      48.464     -22.342
  H      -87.660      46.939     -21.204
  H      -88.242      48.353     -20.297
  H      -86.684      48.424     -21.170
  P      -88.235      49.985     -22.813
  C      -90.645      50.366     -21.971
  O      -89.313      50.865     -22.011
  C      -91.531      51.181     -21.027
  O      -90.923      51.262     -19.719
  C      -91.712      52.624     -21.500
  O      -92.734      52.824     -22.458
  C      -92.038      53.341     -20.193
  O      -93.442      53.256     -19.899
  C      -91.226      52.554     -19.162
  N      -89.009      56.882     -17.592
  C      -90.324      56.659     -17.954
  N      -91.134      57.741     -17.953
  N      -90.787      55.488     -18.302
  C      -89.841      54.521     -18.349
  C      -88.506      54.624     -18.026
  C      -88.014      55.915     -17.589
  O      -86.857      56.166     -17.265
  N      -87.853      53.426     -18.193
  C      -88.774      52.623     -18.686
  N      -90.003      53.234     -18.774
  O      -88.831      49.984     -24.303
  O      -86.833      50.515     -22.795
  H      -93.694      52.315     -19.872
  H      -88.427      50.702     -24.822
  H      -88.714      57.799     -17.306
  H      -88.612      51.588     -18.968
  H      -91.802      52.379     -18.245
  H      -91.790      54.405     -20.243
  H      -90.796      58.680     -17.806
  H      -90.766      53.021     -21.883
  H      -92.019      57.675     -18.460
  H      -92.494      50.670     -20.906
  H      -90.584      49.332     -21.626
  H      -91.073      50.348     -22.977
  P      -92.510      53.847     -23.669
  C      -93.386      55.727     -22.096
  O      -92.411      55.314     -23.030
  O      -93.931      53.844     -24.403
  O      -91.403      53.487     -24.600
  H      -93.919      53.228     -25.160
  H      -93.171      56.724     -21.773
  H      -93.374      55.068     -21.253
  H      -94.352      55.701     -22.554

 6  7  8  9  10  11  12  13  14  15  26  29  33  34 0
 6-311+G(2d,p)
 ****
 36  38  39  40  41 0
 6-311+G(2d,p)
 ****
 1  2  3  4  5  16  17  18  19  20  21  22  23  24  25 0
 3-21G
 ****
 27  28  30  31  32  35  37  42  43  44  45  46  47 0
 3-21G
 ****
 48  49 0
 3-21G
 ****


