%nproc=1
%NoSave
%Mem=1900MB
#P OB98/GEN NMR

erre ene a

0 1
  C      395.667    -409.659    -163.650
  O      395.767    -411.002    -163.202
  P      395.604    -412.168    -164.287
  C      393.580    -413.377    -165.406
  O      394.023    -412.346    -164.536
  C      392.072    -413.249    -165.667
  O      391.357    -413.625    -164.461
  C      391.604    -411.839    -166.048
  O      390.501    -411.992    -166.944
  C      391.124    -411.270    -164.731
  O      390.222    -410.174    -164.895
  C      390.517    -412.510    -164.094
  N      387.461    -411.782    -160.112
  C      387.185    -411.725    -161.468
  N      385.895    -411.498    -161.803
  N      388.084    -411.875    -162.410
  C      389.330    -412.109    -161.923
  C      389.738    -412.149    -160.608
  C      388.728    -412.018    -159.578
  O      388.916    -412.150    -158.369
  N      391.094    -412.324    -160.505
  C      391.488    -412.466    -161.759
  N      390.450    -412.393    -162.646
  O      396.009    -413.482    -163.470
  O      396.399    -412.009    -165.550
  H      390.692    -409.467    -165.370
  H      396.957    -413.699    -163.600
  H      386.729    -411.672    -159.435
  H      392.506    -412.633    -162.081
  H      389.499    -412.717    -164.455
  H      391.983    -410.903    -164.144
  H      385.144    -411.400    -161.130
  H      392.389    -411.227    -166.514
  H      385.654    -411.481    -162.794
  H      391.798    -413.967    -166.450
  H      393.767    -414.355    -164.932
  H      394.146    -413.338    -166.342
  P      390.267    -410.850    -168.050
  C      388.850    -408.684    -168.128
  O      389.560    -409.607    -167.330
  O      389.089    -411.468    -168.952
  O      391.465    -410.530    -168.891
  H      389.190    -411.174    -169.877
  H      388.121    -408.156    -167.499
  H      388.311    -409.176    -168.943
  H      389.548    -407.948    -168.547
  H      395.796    -408.996    -162.820
  H      394.704    -409.500    -164.088
  H      396.426    -409.469    -164.380

 3  4  5  6  7  8  9  10  11  12  23  26  30  31 0
 6-311+G(2d,p)
 ****
 33  35  36  37  38 0
 6-311+G(2d,p)
 ****
 1  2  13  14  15  16  17  18  19  20  21  22  24  25 0
 3-21G
 ****
 27  28  29  32  34  39  40  41  42  43  44  45  46  47  48  49 0
 3-21G
 ****


