%nproc=1
%NoSave
%Mem=1900MB
#P OB98/GEN NMR

erre ene a

0 1
  C       71.368      91.991     -70.631
  O       71.648      93.331     -70.969
  H       71.768      91.343     -71.416
  H       70.286      91.845     -70.571
  H       71.829      91.714     -69.680
  P       71.580      94.444     -69.822
  C       69.002      94.382     -69.765
  O       70.161      95.186     -69.942
  C       67.812      94.913     -70.565
  O       66.666      94.052     -70.386
  C       67.374      96.303     -70.102
  O       68.095      97.384     -70.662
  C       65.913      96.331     -70.544
  O       65.801      96.748     -71.914
  C       65.483      94.871     -70.389
  N       61.439      96.166     -67.550
  C       61.907      96.748     -68.712
  N       61.248      97.848     -69.136
  N       62.938      96.298     -69.378
  C       63.555      95.250     -68.782
  C       63.191      94.599     -67.625
  C       62.015      95.071     -66.924
  O       61.563      94.595     -65.887
  N       64.058      93.573     -67.332
  C       64.983      93.654     -68.267
  N       64.707      94.640     -69.185
  O       72.602      95.571     -70.330
  O       71.942      93.970     -68.447
  H       64.856      96.784     -72.148
  H       72.953      96.068     -69.569
  H       60.624      96.537     -67.094
  H       65.853      93.011     -68.340
  H       64.869      94.542     -71.237
  H       65.325      97.038     -69.950
  H       60.525      98.297     -68.596
  H       67.403      96.367     -69.010
  H       61.713      98.449     -69.819
  H       68.061      94.902     -71.633
  H       68.770      94.396     -68.698
  H       69.214      93.345     -70.038
  P       68.984      98.327     -69.723
  C       67.571     100.479     -70.101
  O       68.810      99.825     -70.265
  O       70.478      97.940     -70.144
  O       68.756      98.152     -68.261
  H       70.843      97.281     -69.524
  H       67.629     101.463     -70.517
  H       67.338     100.545     -69.059
  H       66.806      99.925     -70.603

 6  7  8  9  10  11  12  13  14  15  26  29  33  34 0
 6-311+G(2d,p)
 ****
 36  38  39  40  41 0
 6-311+G(2d,p)
 ****
 1  2  3  4  5  16  17  18  19  20  21  22  23  24  25 0
 3-21G
 ****
 27  28  30  31  32  35  37  42  43  44  45  46  47 0
 3-21G
 ****
 48  49 0
 3-21G
 ****


