%nproc=1
%NoSave
%Mem=1900MB
#P OB98/GEN NMR

erre ene a

0 1
  C      -48.315      57.257     138.997
  O      -49.226      57.395     137.921
  P      -50.057      58.757     137.793
  C      -52.088      59.804     139.035
  O      -51.036      58.852     139.060
  C      -52.729      59.927     140.419
  O      -51.694      59.817     141.441
  C      -53.462      61.258     140.651
  O      -54.585      60.988     141.503
  C      -52.431      62.070     141.412
  O      -52.993      63.160     142.127
  C      -51.819      60.976     142.291
  N      -50.532      61.363     142.868
  C      -50.486      61.569     144.244
  O      -51.455      61.448     144.992
  N      -49.282      61.990     144.743
  C      -48.174      62.303     144.011
  O      -47.163      62.786     144.509
  C      -48.282      62.066     142.563
  C      -49.435      61.613     142.066
  O      -51.047      58.470     136.569
  O      -49.226      59.976     137.564
  H      -53.567      63.650     141.511
  H      -50.707      58.880     135.752
  H      -49.227      62.133     145.739
  H      -47.414      62.284     141.955
  H      -49.550      61.448     141.001
  H      -52.514      60.707     143.098
  H      -51.695      62.475     140.707
  H      -53.792      61.744     139.728
  H      -53.416      59.084     140.562
  H      -52.845      59.483     138.317
  H      -51.699      60.774     138.702
  P      -55.905      61.884     141.311
  C      -56.699      64.198     142.233
  O      -55.703      63.197     142.203
  O      -56.974      61.019     142.135
  O      -56.283      62.098     139.882
  H      -56.620      60.690     142.978
  H      -57.702      63.770     142.150
  H      -56.536      64.895     141.408
  H      -56.627      64.743     143.176
  H      -47.842      56.299     138.943
  H      -48.842      57.343     139.924
  H      -47.572      58.025     138.936

 3  4  5  6  7  8  9  10  11  12  13  23  28  29  30  31  32 0
 6-311+G(2d,p)
 ****
 33  34 0
 6-311+G(2d,p)
 ****
 1  2  14  15  16  17  18  19  20  21  22  24  25  26 0
 3-21G
 ****
 27  35  36  37  38  39  40  41  42  43  44  45 0
 3-21G
 ****


