%nproc=1
%NoSave
%Mem=1900MB
#P OB98/GEN NMR

erre ene a

0 1
  C      164.684    -507.086    -357.136
  O      164.240    -508.423    -357.248
  H      163.823    -506.447    -356.919
  H      165.139    -506.753    -358.073
  H      165.402    -506.989    -356.318
  P      165.314    -509.557    -357.606
  C      165.983    -510.789    -359.775
  O      165.349    -509.651    -359.208
  C      165.409    -511.076    -361.164
  O      164.018    -511.428    -361.067
  C      165.490    -509.898    -362.134
  O      166.785    -509.814    -362.710
  C      164.427    -510.297    -363.144
  O      164.947    -511.326    -364.011
  C      163.333    -510.882    -362.233
  N      159.469    -507.894    -363.606
  C      160.338    -508.627    -364.388
  N      160.179    -508.532    -365.725
  N      161.293    -509.385    -363.903
  C      161.380    -509.329    -362.551
  C      160.589    -508.627    -361.674
  C      159.495    -507.848    -362.220
  O      158.685    -507.201    -361.561
  N      161.040    -508.745    -360.380
  C      162.073    -509.562    -360.474
  N      162.328    -509.939    -361.776
  O      165.124    -510.882    -356.928
  O      166.724    -508.893    -357.245
  H      165.813    -511.017    -364.333
  H      166.990    -509.105    -356.333
  H      158.758    -507.321    -364.036
  H      162.664    -509.914    -359.639
  H      162.799    -511.708    -362.714
  H      164.110    -509.468    -363.776
  H      159.564    -507.854    -366.159
  H      165.192    -508.960    -361.653
  H      160.844    -509.013    -366.311
  H      165.937    -511.951    -361.569
  H      165.808    -511.636    -359.105
  H      167.063    -510.621    -359.854
  P      167.162    -508.659    -363.763
  C      167.405    -508.713    -366.340
  O      166.755    -509.247    -365.200
  O      168.562    -508.156    -363.668
  O      166.043    -507.536    -363.534
  H      166.272    -506.912    -362.804
  H      167.036    -509.196    -367.220
  H      168.459    -508.877    -366.259
  H      167.211    -507.663    -366.402

 6  7  8  9  10  11  12  13  14  15  26  29  33  34 0
 6-311+G(2d,p)
 ****
 36  38  39  40  41 0
 6-311+G(2d,p)
 ****
 1  2  3  4  5  16  17  18  19  20  21  22  23  24  25 0
 3-21G
 ****
 27  28  30  31  32  35  37  42  43  44  45  46  47 0
 3-21G
 ****
 48  49 0
 3-21G
 ****


