%nproc=1
%NoSave
%Mem=1900MB
#P OB98/GEN NMR

erre ene a

0 1
  C     -855.376    -222.099     -84.144
  O     -856.491    -222.194     -85.004
  H     -854.465    -222.053     -84.747
  H     -855.318    -222.976     -83.493
  H     -855.444    -221.190     -83.538
  P     -857.925    -222.380     -84.320
  C     -858.479    -224.248     -86.042
  O     -858.421    -223.864     -84.673
  C     -858.008    -225.692     -86.184
  O     -856.759    -225.876     -85.470
  C     -858.964    -226.717     -85.601
  O     -860.062    -226.993     -86.456
  C     -858.042    -227.920     -85.446
  O     -857.929    -228.668     -86.663
  C     -856.700    -227.265     -85.074
  N     -856.402    -227.410     -83.647
  C     -855.732    -228.582     -83.298
  O     -855.403    -229.446     -84.105
  N     -855.488    -228.738     -81.961
  C     -855.879    -227.898     -80.962
  O     -855.681    -228.137     -79.779
  C     -856.596    -226.686     -81.396
  C     -856.822    -226.505     -82.702
  O     -858.878    -221.440     -85.198
  O     -857.980    -222.030     -82.869
  H     -859.102    -220.634     -84.695
  H     -857.132    -229.226     -86.564
  H     -855.001    -229.592     -81.682
  H     -856.924    -225.991     -80.625
  H     -857.363    -225.625     -83.042
  H     -855.883    -227.717     -85.646
  H     -858.417    -228.596     -84.682
  H     -859.301    -226.395     -84.603
  H     -857.826    -225.900     -87.253
  H     -857.820    -223.606     -86.635
  H     -859.502    -224.132     -86.406
  P     -861.540    -226.728     -85.882
  C     -862.374    -229.177     -86.354
  O     -862.096    -228.152     -85.410
  O     -862.327    -226.406     -87.235
  O     -861.578    -225.644     -84.854
  H     -861.916    -226.845     -88.006
  H     -862.734    -230.045     -85.842
  H     -861.480    -229.423     -86.887
  H     -863.118    -228.835     -87.043

 6  7  8  9  10  11  12  13  14  15  16  27  31  32  33  34  35 0
 6-311+G(2d,p)
 ****
 36  37 0
 6-311+G(2d,p)
 ****
 1  2  3  4  5  17  18  19  20  21  22  23  24  25 0
 3-21G
 ****
 26  28  29  30  38  39  40  41  42  43  44  45 0
 3-21G
 ****


