%nproc=1
%NoSave
%Mem=1900MB
#P OB98/GEN NMR

erre ene a

0 1
  C     -161.406      -6.645     304.654
  O     -161.705      -5.378     305.235
  P     -160.850      -4.938     306.522
  C     -161.110      -2.374     306.185
  O     -161.453      -3.514     306.966
  C     -161.811      -1.127     306.717
  O     -163.248      -1.290     306.609
  C     -161.547      -0.832     308.185
  O     -160.299      -0.167     308.377
  C     -162.717       0.091     308.520
  O     -162.416       1.437     308.085
  C     -163.855      -0.502     307.668
  N     -168.218      -0.672     310.248
  C     -167.611       0.385     309.593
  N     -168.282       1.558     309.614
  N     -166.459       0.296     308.984
  C     -165.924      -0.942     309.015
  C     -166.425      -2.074     309.631
  C     -167.678      -1.956     310.336
  O     -168.227      -2.843     310.997
  N     -165.604      -3.157     309.420
  C     -164.626      -2.694     308.662
  N     -164.768      -1.355     308.413
  O     -159.420      -4.557     305.902
  O     -160.733      -5.969     307.590
  H     -162.154       1.375     307.137
  H     -158.726      -4.657     306.579
  H     -169.119      -0.562     310.682
  H     -163.817      -3.294     308.278
  H     -164.433       0.294     307.179
  H     -162.929       0.138     309.589
  H     -169.229       1.656     309.944
  H     -161.613      -1.745     308.790
  H     -167.874       2.343     309.101
  H     -161.525      -0.269     306.085
  H     -161.425      -2.543     305.145
  H     -160.022      -2.239     306.200
  P     -159.269      -0.855     309.405
  C     -157.152      -0.201     308.044
  O     -157.911      -0.039     309.236
  O     -158.957      -2.269     308.722
  O     -159.795      -1.001     310.794
  H     -158.699      -2.921     309.396
  H     -157.805      -0.325     307.171
  H     -156.500      -1.078     308.139
  H     -156.529       0.692     307.881
  H     -162.044      -6.811     303.811
  H     -161.565      -7.416     305.379
  H     -160.384      -6.659     304.336

 3  4  5  6  7  8  9  10  11  12  23  26  30  31  33  0
 6-311+G(2d,p)
 ****
 35  36  37  38 0
 6-311+G(2d,p)
 ****
 1  2  13  14  15  16  17  18  19  20  21  22  24  25  27  28  29 0
 3-21G
 ****
 32  34  39  40  41  42  43  44  45  46  47  48  49 0
 3-21G
 ****


