%nproc=1
%NoSave
%Mem=1900MB
#P OB98/GEN NMR

erre ene a

0 1
  C     -413.909     -90.641     208.478
  O     -414.495     -89.587     209.217
  P     -414.366     -88.070     208.731
  C     -412.011     -87.573     209.776
  O     -412.819     -87.704     208.627
  C     -410.778     -86.726     209.426
  O     -409.879     -87.480     208.593
  C     -411.167     -85.455     208.675
  O     -411.301     -84.362     209.574
  C     -410.023     -85.289     207.689
  O     -408.892     -84.668     208.332
  C     -409.699     -86.760     207.340
  N     -410.516     -87.427     206.310
  C     -410.280     -87.157     204.962
  O     -409.398     -86.403     204.561
  N     -411.131     -87.773     204.076
  C     -412.130     -88.647     204.399
  O     -413.019     -88.993     203.634
  C     -412.143     -89.096     205.799
  C     -411.370     -88.458     206.675
  O     -414.860     -87.235     210.001
  O     -415.138     -87.727     207.498
  H     -409.215     -83.844     208.743
  H     -415.791     -86.964     209.894
  H     -411.054     -87.470     203.108
  H     -412.828     -89.886     206.073
  H     -411.396     -88.748     207.724
  H     -408.648     -86.872     207.044
  H     -410.302     -84.634     206.868
  H     -412.094     -85.616     208.110
  H     -410.246     -86.470     210.354
  H     -411.704     -88.558     210.138
  H     -412.580     -87.097     210.581
  P     -412.275     -83.149     209.197
  C     -410.235     -81.645     208.795
  O     -411.409     -82.201     208.234
  O     -412.928     -82.464     210.357
  O     -413.352     -83.827     208.222
  H     -414.160     -84.055     208.726
  H     -409.662     -81.174     208.001
  H     -409.635     -82.423     209.267
  H     -410.508     -80.882     209.535
  H     -414.107     -91.572     208.966
  H     -412.852     -90.489     208.416
  H     -414.325     -90.660     207.492

 3  4  5  6  7  8  9  10  11  12  13  23  28  29  30  31  32 0
 6-311+G(2d,p)
 ****
 33  34 0
 6-311+G(2d,p)
 ****
 1  2  14  15  16  17  18  19  20  21  22  24  25  26  27 0
 3-21G
 ****
 35  36  37  38  39  40  41  42  43  44  45 0
 3-21G
 ****


