%nproc=1
%NoSave
%Mem=1900MB
#P OB98/GEN NMR

erre ene a

0 1
  C     -390.546     -27.007    -102.295
  O     -390.499     -26.511    -100.972
  H     -391.452     -26.630    -102.779
  H     -390.585     -28.100    -102.278
  H     -389.677     -26.678    -102.873
  P     -389.120     -26.607    -100.161
  C     -388.459     -24.138    -100.517
  O     -388.809     -25.142     -99.578
  C     -388.762     -22.736     -99.963
  O     -390.196     -22.576     -99.820
  C     -388.152     -22.566     -98.566
  O     -387.823     -21.207     -98.284
  C     -389.282     -23.009     -97.650
  O     -389.160     -22.496     -96.325
  C     -390.497     -22.487     -98.414
  N     -395.494     -22.199     -97.445
  C     -394.571     -21.182     -97.556
  N     -395.031     -19.926     -97.364
  N     -393.302     -21.384     -97.821
  C     -392.972     -22.693     -97.913
  C     -393.791     -23.791     -97.793
  C     -395.200     -23.555     -97.544
  O     -396.064     -24.420     -97.413
  N     -393.090     -24.966     -97.931
  C     -391.847     -24.580     -98.126
  N     -391.726     -23.209     -98.135
  O     -388.012     -26.766    -101.312
  O     -389.034     -27.721     -99.160
  H     -389.130     -21.523     -96.391
  H     -387.221     -27.212    -100.961
  H     -396.465     -21.991     -97.256
  H     -391.003     -25.247     -98.264
  H     -390.682     -21.425     -98.171
  H     -389.262     -24.104     -97.579
  H     -395.947     -19.734     -96.991
  H     -387.263     -23.181     -98.433
  H     -394.329     -19.209     -97.156
  H     -388.424     -21.969    -100.668
  H     -389.045     -24.318    -101.424
  H     -387.402     -24.219    -100.787
  P     -386.578     -20.568     -99.064
  C     -388.043     -19.353    -100.879
  O     -387.097     -19.254     -99.823
  O     -386.294     -21.613    -100.237
  O     -385.378     -20.344     -98.199
  H     -385.495     -22.138    -100.040
  H     -388.262     -18.375    -101.255
  H     -388.941     -19.803    -100.512
  H     -387.638     -19.955    -101.665

 6  7  8  9  10  11  12  13  14  15  26  29  33  34 0
 6-311+G(2d,p)
 ****
 36  38  39  40  41 0
 6-311+G(2d,p)
 ****
 1  2  3  4  5  16  17  18  19  20  21  22  23  24  25 0
 3-21G
 ****
 27  28  30  31  32  35  37  42  43  44  45  46  47 0
 3-21G
 ****
 48  49 0
 3-21G
 ****


