%nproc=1
%NoSave
%Mem=1900MB
#P OB98/GEN NMR

erre ene a

0 1
  C       17.462     155.889     -95.759
  O       17.938     156.478     -94.564
  H       16.680     156.528     -96.177
  H       17.038     154.903     -95.550
  H       18.274     155.801     -96.487
  P       19.083     155.673     -93.779
  C       17.777     155.925     -91.552
  O       18.374     155.037     -92.486
  C       16.451     155.360     -91.052
  O       15.630     154.928     -92.162
  C       16.588     154.162     -90.120
  O       16.850     154.575     -88.789
  C       15.222     153.508     -90.275
  O       14.226     154.164     -89.462
  C       14.932     153.717     -91.768
  N       13.496     149.295     -93.735
  C       12.793     150.196     -92.964
  N       11.535     149.841     -92.621
  N       13.279     151.338     -92.555
  C       14.559     151.543     -92.946
  C       15.356     150.734     -93.725
  C       14.792     149.488     -94.196
  O       15.340     148.677     -94.937
  N       16.591     151.296     -93.921
  C       16.555     152.421     -93.233
  N       15.348     152.607     -92.610
  O       19.998     156.835     -93.159
  O       19.884     154.727     -94.607
  H       13.341     153.907     -89.773
  H       20.918     156.516     -93.098
  H       13.060     148.440     -94.034
  H       17.369     153.128     -93.156
  H       13.865     153.878     -91.962
  H       15.237     152.462     -89.964
  H       11.240     148.874     -92.617
  H       17.362     153.475     -90.482
  H       11.020     150.487     -92.036
  H       15.913     156.176     -90.552
  H       17.596     156.888     -92.041
  H       18.461     156.076     -90.710
  P       18.312     154.286     -88.194
  C       17.451     152.633     -86.378
  O       18.252     152.824     -87.537
  O       18.392     155.256     -86.923
  O       19.432     154.519     -89.152
  H       19.321     155.368     -86.646
  H       17.516     151.612     -86.064
  H       16.433     152.872     -86.605
  H       17.801     153.271     -85.593

 6  7  8  9  10  11  12  13  14  15  26  29  33  34 0
 6-311+G(2d,p)
 ****
 36  38  39  40  41 0
 6-311+G(2d,p)
 ****
 1  2  3  4  5  16  17  18  19  20  21  22  23  24  25 0
 3-21G
 ****
 27  28  30  31  32  35  37  42  43  44  45  46  47 0
 3-21G
 ****
 48  49 0
 3-21G
 ****


