%nproc=1
%NoSave
%Mem=1900MB
#P OB98/GEN NMR

erre ene a

0 1
  C      -72.681     158.770    -223.824
  O      -73.900     158.058    -223.761
  H      -72.370     159.024    -222.807
  H      -72.804     159.693    -224.398
  H      -71.907     158.142    -224.283
  P      -74.547     157.617    -225.161
  C      -76.291     159.480    -224.779
  O      -75.327     158.929    -225.667
  C      -77.249     160.404    -225.532
  O      -78.043     159.604    -226.440
  C      -78.213     161.166    -224.610
  O      -78.399     162.486    -225.114
  C      -79.510     160.381    -224.730
  O      -80.655     161.181    -224.451
  C      -79.432     159.877    -226.176
  N      -84.192     158.038    -226.219
  C      -83.712     159.298    -226.139
  N      -82.417     159.698    -226.148
  C      -81.595     158.650    -226.303
  C      -81.938     157.307    -226.390
  C      -83.311     157.016    -226.337
  N      -83.808     155.731    -226.394
  N      -80.803     156.526    -226.502
  C      -79.797     157.378    -226.490
  N      -80.222     158.670    -226.355
  O      -75.354     156.365    -225.131
  O      -73.266     157.588    -226.115
  H      -80.555     161.559    -223.551
  H      -72.692     158.362    -225.969
  H      -84.455     160.085    -226.044
  H      -78.749     157.110    -226.559
  H      -79.791     160.612    -226.902
  H      -79.495     159.543    -224.024
  H      -77.857     161.209    -223.578
  H      -76.658     161.096    -226.147
  H      -75.791     160.037    -223.979
  H      -84.814     155.612    -226.359
  H      -83.177     154.957    -226.498
  H      -76.844     158.647    -224.324
  P      -77.418     163.644    -224.604
  C      -79.057     164.523    -222.803
  O      -77.767     163.970    -223.072
  O      -77.290     164.838    -225.497
  O      -76.010     162.876    -224.476
  H      -75.297     163.478    -224.750
  H      -79.160     164.692    -221.751
  H      -79.813     163.840    -223.131
  H      -79.163     165.451    -223.325

 6  7  8  9  10  11  12  13  14  15  25  28  32  33  34  35 0
 6-311+G(2d,p)
 ****
 36  39  40 0
 6-311+G(2d,p)
 ****
 1  2  3  4  5  16  17  18  19  20  21  22  23  24 0
 3-21G
 ****
 26  27  29  30  31  37  38  41  42  43  44  45  46  47 0
 3-21G
 ****
 48 0
 3-21G
 ****


