%nproc=1
%NoSave
%Mem=1900MB
#P OB98/GEN NMR

erre ene a

0 1
  C     -119.487    -166.187    -154.190
  O     -119.675    -167.033    -153.076
  H     -119.823    -165.181    -153.927
  H     -120.070    -166.546    -155.041
  H     -118.425    -166.148    -154.456
  P     -119.294    -168.583    -153.269
  C     -118.607    -168.940    -150.790
  O     -119.499    -169.287    -151.841
  C     -119.309    -169.114    -149.447
  O     -120.292    -168.072    -149.265
  C     -120.081    -170.424    -149.311
  O     -119.228    -171.519    -149.028
  C     -121.017    -170.090    -148.164
  O     -120.377    -170.283    -146.890
  C     -121.325    -168.596    -148.410
  N     -122.659    -168.398    -148.966
  C     -123.511    -167.583    -148.225
  O     -123.176    -167.052    -147.163
  N     -124.769    -167.422    -148.728
  C     -125.267    -168.016    -149.848
  O     -126.432    -167.892    -150.207
  C     -124.319    -168.858    -150.600
  C     -123.081    -169.015    -150.130
  O     -117.704    -168.544    -153.454
  O     -119.978    -169.264    -154.407
  H     -117.478    -168.656    -154.395
  H     -121.036    -170.046    -146.212
  H     -125.404    -166.846    -148.199
  H     -124.683    -169.339    -151.501
  H     -122.372    -169.644    -150.654
  H     -121.267    -168.035    -147.467
  H     -121.902    -170.723    -148.170
  H     -120.677    -170.607    -150.212
  H     -118.562    -169.024    -148.647
  H     -118.303    -167.896    -150.901
  H     -117.717    -169.578    -150.850
  P     -119.562    -172.937    -149.697
  C     -117.438    -173.851    -148.439
  O     -118.783    -174.049    -148.827
  O     -118.723    -172.852    -151.051
  O     -121.021    -173.197    -149.872
  H     -117.885    -172.374    -150.951
  H     -117.102    -174.694    -147.873
  H     -117.366    -172.967    -147.840
  H     -116.828    -173.741    -149.311

 6  7  8  9  10  11  12  13  14  15  16  27  31  32  33  34  35 0
 6-311+G(2d,p)
 ****
 36  37 0
 6-311+G(2d,p)
 ****
 1  2  3  4  5  17  18  19  20  21  22  23  24  25 0
 3-21G
 ****
 26  28  29  30  38  39  40  41  42  43  44  45 0
 3-21G
 ****


