%nproc=1
%NoSave
%Mem=1900MB
#P OB98/GEN NMR

erre ene a

0 1
  C     -617.422     164.445    -166.302
  O     -618.768     164.649    -165.928
  P     -619.967     164.298    -166.942
  C     -620.177     161.935    -165.946
  O     -619.959     162.699    -167.127
  C     -620.862     160.610    -166.280
  O     -620.943     159.810    -165.076
  C     -622.275     160.772    -166.825
  O     -622.518     159.773    -167.811
  C     -623.173     160.487    -165.627
  O     -624.462     160.014    -166.041
  C     -622.326     159.467    -164.864
  N     -624.477     156.960    -160.932
  C     -624.364     156.646    -162.239
  N     -623.802     157.370    -163.229
  C     -623.271     158.509    -162.748
  C     -623.319     158.965    -161.436
  C     -623.960     158.141    -160.507
  N     -624.068     158.456    -159.161
  N     -622.701     160.200    -161.326
  C     -622.280     160.469    -162.544
  N     -622.596     159.478    -163.435
  O     -619.946     165.067    -168.217
  O     -621.302     164.559    -166.101
  H     -624.974     159.816    -165.223
  H     -621.985     164.955    -166.676
  H     -624.775     155.682    -162.520
  H     -621.758     161.368    -162.834
  H     -622.491     158.438    -165.236
  H     -623.326     161.403    -165.046
  H     -622.457     161.770    -167.245
  H     -620.232     160.064    -166.991
  H     -620.822     162.514    -165.274
  H     -624.434     157.750    -158.549
  H     -623.531     159.241    -158.814
  H     -619.222     161.763    -165.438
  P     -623.612     160.141    -168.931
  C     -622.466     162.354    -169.702
  O     -623.559     161.736    -169.048
  O     -624.944     159.524    -168.651
  O     -622.898     159.603    -170.264
  H     -621.910     159.574    -170.155
  H     -622.593     163.441    -169.645
  H     -622.453     162.066    -170.760
  H     -621.523     162.069    -169.219
  H     -616.780     164.737    -165.497
  H     -617.199     165.034    -167.167
  H     -617.267     163.410    -166.525

 3  4  5  6  7  8  9  10  11  12  22  25  29  30  31  32 0
 6-311+G(2d,p)
 ****
 33  36  37 0
 6-311+G(2d,p)
 ****
 1  2  13  14  15  16  17  18  19  20  21  23  24  26 0
 3-21G
 ****
 27  28  34  35  38  39  40  41  42  43  44  45  46  47  48 0
 3-21G
 ****


