%nproc=1
%NoSave
%Mem=1900MB
#P OB98/GEN NMR

erre ene a

0 1
  C     -373.114    -500.252     265.316
  O     -373.150    -499.305     266.370
  H     -374.145    -500.524     265.061
  H     -372.575    -501.145     265.634
  H     -372.639    -499.816     264.432
  P     -371.737    -498.764     266.898
  C     -371.608    -500.593     268.738
  O     -371.001    -500.025     267.586
  C     -370.912    -501.901     269.115
  O     -369.527    -501.610     269.479
  C     -371.543    -502.631     270.305
  O     -371.489    -504.042     270.072
  C     -370.629    -502.290     271.466
  O     -370.712    -503.229     272.521
  C     -369.283    -502.249     270.747
  N     -365.492    -502.850     274.017
  C     -366.284    -503.787     273.376
  N     -366.038    -505.079     273.649
  N     -367.243    -503.477     272.535
  C     -367.370    -502.139     272.334
  C     -366.656    -501.113     272.916
  C     -365.608    -501.460     273.859
  O     -364.884    -500.686     274.463
  N     -367.109    -499.888     272.473
  C     -368.094    -500.170     271.634
  N     -368.284    -501.535     271.527
  O     -372.138    -497.850     268.154
  O     -370.912    -498.029     265.900
  H     -370.712    -504.130     272.126
  H     -371.497    -497.121     268.272
  H     -364.782    -503.147     274.655
  H     -368.692    -499.460     271.090
  H     -368.868    -503.244     270.564
  H     -370.885    -501.298     271.862
  H     -365.292    -505.406     274.260
  H     -372.588    -502.336     270.485
  H     -366.609    -505.790     273.182
  H     -370.870    -502.542     268.227
  H     -372.661    -500.793     268.525
  H     -371.541    -499.892     269.577
  P     -372.876    -504.837     269.975
  C     -372.946    -506.134     272.230
  O     -373.449    -505.058     271.468
  O     -372.415    -506.321     269.533
  O     -373.843    -504.266     268.994
  H     -372.655    -506.483     268.613
  H     -373.422    -506.145     273.188
  H     -371.890    -506.018     272.357
  H     -373.145    -507.055     271.722

 6  7  8  9  10  11  12  13  14  15  26  29  33  34 0
 6-311+G(2d,p)
 ****
 36  38  39  40  41 0
 6-311+G(2d,p)
 ****
 1  2  3  4  5  16  17  18  19  20  21  22  23  24  25 0
 3-21G
 ****
 27  28  30  31  32  35  37  42  43  44  45  46  47 0
 3-21G
 ****
 48  49 0
 3-21G
 ****


