%nproc=1
%NoSave
%Mem=1900MB
#P OB98/GEN NMR

erre ene a

0 1
  C      -60.650      -2.840     -13.766
  O      -59.585      -3.756     -13.958
  P      -59.388      -4.371     -15.429
  C      -58.211      -2.175     -16.161
  O      -59.223      -3.133     -16.436
  C      -57.685      -1.550     -17.454
  O      -58.769      -0.824     -18.100
  C      -56.524      -0.562     -17.260
  O      -55.670      -0.699     -18.401
  C      -57.241       0.776     -17.266
  O      -56.390       1.887     -17.488
  C      -58.290       0.518     -18.344
  N      -60.529       4.413     -20.780
  C      -59.484       3.623     -21.115
  N      -58.949       2.599     -20.418
  C      -59.614       2.412     -19.266
  C      -60.683       3.146     -18.783
  C      -61.146       4.192     -19.597
  N      -62.208       5.002     -19.249
  N      -61.085       2.677     -17.550
  C      -60.269       1.676     -17.290
  N      -59.379       1.465     -18.306
  O      -60.840      -4.938     -15.780
  O      -58.332      -5.426     -15.535
  H      -56.869       2.717     -17.300
  H      -60.782      -5.783     -16.264
  H      -59.014       3.844     -22.069
  H      -60.273       1.085     -16.385
  H      -57.858       0.541     -19.351
  H      -57.719       0.929     -16.291
  H      -55.942      -0.751     -16.353
  H      -57.385      -2.358     -18.132
  H      -57.375      -2.665     -15.653
  H      -62.332       5.839     -19.799
  H      -62.521       4.963     -18.286
  H      -58.610      -1.408     -15.488
  P      -54.148      -0.203     -18.294
  C      -53.687      -2.043     -16.561
  O      -53.698      -0.653     -16.819
  O      -54.354       1.373     -18.102
  O      -53.258      -0.582     -19.427
  H      -54.992       1.567     -17.392
  H      -53.272      -2.209     -15.564
  H      -53.065      -2.561     -17.296
  H      -54.707      -2.435     -16.589
  H      -60.661      -2.515     -12.747
  H      -61.578      -3.319     -13.998
  H      -60.514      -1.995     -14.409

 3  4  5  6  7  8  9  10  11  12  22  25  29  30  31  32 0
 6-311+G(2d,p)
 ****
 33  36  37 0
 6-311+G(2d,p)
 ****
 1  2  13  14  15  16  17  18  19  20  21  23  24  26 0
 3-21G
 ****
 27  28  34  35  38  39  40  41  42  43  44  45  46  47  48 0
 3-21G
 ****


