%nproc=1
%NoSave
%Mem=1900MB
#P OB98/GEN NMR

erre ene a

0 1
  C      -64.405    -270.053     310.364
  O      -63.723    -270.855     311.309
  H      -64.323    -269.006     310.667
  H      -65.463    -270.331     310.332
  H      -63.957    -270.170     309.374
  P      -63.713    -272.434     311.030
  C      -63.254    -273.503     308.697
  O      -62.793    -272.651     309.734
  C      -62.069    -274.120     307.946
  O      -61.335    -273.052     307.273
  C      -61.062    -274.841     308.858
  O      -60.439    -275.885     308.088
  C      -60.048    -273.738     309.132
  O      -58.864    -274.265     309.684
  C      -59.968    -273.118     307.741
  N      -55.594    -270.506     307.278
  C      -55.870    -271.826     307.175
  N      -57.062    -272.445     307.300
  C      -58.042    -271.554     307.530
  C      -57.916    -270.178     307.647
  C      -56.618    -269.651     307.514
  N      -56.333    -268.309     307.622
  N      -59.148    -269.595     307.887
  C      -59.998    -270.603     307.915
  N      -59.372    -271.803     307.713
  O      -65.195    -272.723     310.498
  O      -63.362    -273.291     312.201
  H      -58.344    -274.741     309.002
  H      -65.761    -273.022     311.236
  H      -55.018    -272.470     306.976
  H      -61.065    -270.521     308.083
  H      -59.411    -273.750     307.043
  H      -60.443    -273.019     309.857
  H      -61.517    -275.268     309.753
  H      -62.449    -274.786     307.162
  H      -63.864    -272.910     308.007
  H      -63.869    -274.298     309.124
  H      -55.377    -268.013     307.530
  H      -57.084    -267.662     307.818
  P      -60.939    -277.401     308.281
  C      -62.979    -278.769     307.368
  O      -62.037    -277.724     307.157
  O      -61.843    -277.289     309.600
  O      -59.863    -278.420     308.462
  H      -61.843    -278.146     310.070
  H      -63.628    -278.840     306.520
  H      -63.557    -278.557     308.243
  H      -62.460    -279.696     307.499

 6  7  8  9  10  11  12  13  14  15  25  28  32  33  34  35 0
 6-311+G(2d,p)
 ****
 36  37  40 0
 6-311+G(2d,p)
 ****
 1  2  3  4  5  16  17  18  19  20  21  22  23  24 0
 3-21G
 ****
 26  27  29  30  31  38  39 41  42  43  44  45  46  47  48 0
 3-21G
 ****


