%nproc=1
%NoSave
%Mem=1900MB
#P OB98/GEN NMR

erre ene a

0 1
  C      620.266    -127.872     110.674
  O      621.663    -127.935     110.947
  P      622.575    -128.820     109.970
  C      623.224    -126.653     108.648
  O      622.780    -127.994     108.614
  C      622.976    -125.951     107.297
  O      623.821    -126.564     106.299
  C      621.558    -126.071     106.752
  O      621.354    -125.055     105.767
  C      621.595    -127.425     106.085
  O      620.514    -127.588     105.154
  C      623.014    -127.455     105.478
  N      623.615    -128.807     105.446
  C      623.060    -129.758     104.599
  O      622.098    -129.550     103.862
  N      623.629    -131.002     104.634
  C      624.700    -131.374     105.394
  O      625.113    -132.526     105.454
  C      625.333    -130.294     106.163
  C      624.767    -129.086     106.166
  O      621.610    -130.031     109.546
  O      623.841    -129.303     110.592
  H      620.713    -128.403     104.648
  H      621.876    -130.849     110.013
  H      623.198    -131.723     104.073
  H      626.234    -130.533     106.725
  H      625.210    -128.278     106.753
  H      623.010    -127.077     104.446
  H      621.490    -128.208     106.840
  H      620.771    -126.006     107.516
  H      623.273    -124.904     107.379
  H      624.286    -126.621     108.896
  H      622.702    -126.107     109.439
  P      620.568    -123.727     106.204
  C      622.813    -122.529     105.846
  O      621.677    -122.673     106.673
  O      619.413    -123.930     107.128
  O      620.090    -123.121     104.789
  H      619.356    -122.500     104.938
  H      623.197    -121.513     105.936
  H      622.570    -122.723     104.795
  H      623.582    -123.233     106.172
  H      619.788    -127.250     111.402
  H      619.849    -128.857     110.717
  H      620.111    -127.462     109.698

 3  4  5  6  7  8  9  10  11  12  13  23  28  29  30  31  32 0
 6-311+G(2d,p)
 ****
 33  34 0
 6-311+G(2d,p)
 ****
 1  2  14  15  16  17  18  19  20  21  22  24  25  26  27 0
 3-21G
 ****
 35  36  37  38  39  40  41  42  43  44  45 0
 3-21G
 ****


