%nproc=1
%NoSave
%Mem=1900MB
#P OB98/GEN NMR

erre ene a

0 1
  C      707.124     448.151    -558.246
  O      707.422     446.780    -558.421
  H      707.960     448.744    -558.629
  H      706.992     448.375    -557.184
  H      706.217     448.416    -558.797
  P      706.293     445.741    -557.952
  C      706.299     443.935    -559.836
  O      706.740     444.315    -558.536
  C      707.235     444.523    -560.902
  O      708.550     443.919    -560.757
  C      706.765     444.262    -562.345
  O      707.209     445.346    -563.173
  C      707.553     443.007    -562.694
  O      707.567     442.808    -564.086
  C      708.890     443.355    -562.039
  N      712.734     440.725    -564.125
  C      712.136     441.888    -564.473
  N      711.121     442.528    -563.861
  C      710.740     441.856    -562.757
  C      711.250     440.666    -562.274
  C      712.294     440.084    -563.011
  N      712.886     438.890    -562.671
  N      710.582     440.280    -561.128
  C      709.688     441.228    -560.916
  N      709.748     442.205    -561.878
  O      705.031     446.142    -558.848
  O      705.973     445.747    -556.495
  H      706.665     442.663    -564.431
  H      704.468     446.779    -558.366
  H      712.530     442.363    -565.371
  H      708.969     441.255    -560.107
  H      709.448     444.107    -562.605
  H      707.107     442.118    -562.235
  H      705.687     444.144    -562.437
  H      707.359     445.600    -560.711
  H      705.280     444.308    -559.980
  H      706.308     442.846    -559.916
  H      713.611     438.527    -563.271
  H      712.548     438.381    -561.865
  P      706.120     446.208    -563.980
  C      707.207     448.528    -564.508
  O      706.844     447.234    -564.975
  O      705.561     447.186    -562.838
  O      704.995     445.421    -564.579
  H      704.590     447.215    -562.873
  H      707.676     449.074    -565.300
  H      707.888     448.433    -563.688
  H      706.330     449.050    -564.185

 6  7  8  9  10  11  12  13  14  15  25  28  32  33  34  35 0
 6-311+G(2d,p)
 ****
 36  37  40 0
 6-311+G(2d,p)
 ****
 1  2  3  4  5  16  17  18  19  20  21  22  23  24 0
 3-21G
 ****
 26  27  29  30  31  38  39 41  42  43  44  45  46  47  48 0
 3-21G
 ****


