%nproc=1
%NoSave
%Mem=1900MB
#P OB98/GEN NMR

erre ene a

0 1
  C     -589.065      24.995     143.720
  O     -590.318      25.331     144.282
  H     -589.097      25.210     142.642
  H     -588.836      23.936     143.862
  H     -588.277      25.612     144.168
  P     -590.610      24.875     145.796
  C     -591.966      22.850     144.924
  O     -590.868      23.287     145.727
  C     -592.103      21.326     144.951
  O     -591.085      20.728     144.112
  C     -591.888      20.715     146.326
  O     -592.915      21.002     147.253
  C     -591.552      19.271     145.999
  O     -592.704      18.443     145.844
  C     -590.822      19.411     144.637
  N     -589.390      19.149     144.759
  C     -588.948      17.935     144.245
  O     -589.702      17.103     143.733
  N     -587.611      17.682     144.369
  C     -586.702      18.487     144.997
  O     -585.517      18.183     145.114
  C     -587.231      19.750     145.544
  C     -588.534      20.022     145.401
  O     -591.691      25.635     146.506
  O     -589.178      24.977     146.504
  H     -593.198      18.777     145.070
  H     -589.268      24.983     147.490
  H     -587.272      16.815     143.998
  H     -586.537      20.411     146.045
  H     -588.949      20.944     145.804
  H     -591.235      18.695     143.917
  H     -590.935      18.811     146.774
  H     -590.971      21.152     146.753
  H     -593.082      21.056     144.546
  H     -591.771      23.175     143.892
  H     -592.888      23.321     145.276
  P     -592.650      21.701     148.665
  C     -592.377      19.507     150.027
  O     -591.770      20.705     149.571
  O     -593.821      22.395     149.301
  O     -591.588      22.841     148.267
  H     -591.752      23.619     148.828
  H     -591.674      18.952     150.613
  H     -592.683      18.920     149.186
  H     -593.231      19.745     150.626

 6  7  8  9  10  11  12  13  14  15  16  26  31  32  33  34  35 0
 6-311+G(2d,p)
 ****
 36  37 0
 6-311+G(2d,p)
 ****
 1  2  3  4  5  17  18  19  20  21  22  23  24  25 0
 3-21G
 ****
 27  28  29  30  38  39  40  41  42  43  44  45 0
 3-21G
 ****


