%nproc=1
%NoSave
%Mem=1900MB
#P OB98/GEN NMR

erre ene a

0 1
  C      344.877    -872.546    1212.041
  O      345.687    -871.513    1212.558
  H      343.832    -872.220    1212.042
  H      344.961    -873.446    1212.656
  H      345.167    -872.773    1211.010
  P      347.249    -871.790    1212.764
  C      347.882    -869.284    1212.661
  O      347.859    -870.463    1213.443
  C      347.481    -868.059    1213.499
  O      346.210    -868.334    1214.156
  C      348.497    -867.714    1214.614
  O      348.444    -866.295    1214.823
  C      347.912    -868.462    1215.799
  O      348.496    -868.039    1217.012
  C      346.418    -868.202    1215.580
  N      345.579    -869.097    1216.357
  C      344.979    -868.555    1217.497
  O      345.185    -867.384    1217.820
  N      344.179    -869.371    1218.270
  C      344.043    -870.624    1217.966
  N      343.261    -871.372    1218.774
  C      344.710    -871.243    1216.785
  C      345.452    -870.427    1216.038
  O      347.986    -872.282    1211.558
  O      347.299    -872.859    1213.965
  H      349.467    -868.231    1217.019
  H      347.504    -873.742    1213.603
  H      344.573    -872.298    1216.582
  H      345.977    -870.781    1215.160
  H      346.168    -867.156    1215.862
  H      348.119    -869.539    1215.723
  H      349.526    -868.021    1214.370
  H      347.321    -867.207    1212.837
  H      342.816    -870.921    1219.575
  H      347.160    -869.419    1211.846
  H      343.101    -872.376    1218.650
  H      348.873    -869.121    1212.227
  P      349.703    -865.431    1215.278
  C      348.964    -863.169    1214.259
  O      349.279    -863.901    1215.443
  O      350.927    -865.626    1214.420
  O      350.015    -865.903    1216.797
  H      350.971    -865.835    1216.965
  H      348.699    -862.166    1214.520
  H      348.141    -863.636    1213.759
  H      349.815    -863.156    1213.610

 6  7  8  9  10  11  12  13  14  15  16  26  30  31  32  33  35 0
 6-311+G(2d,p)
 ****
 37  38 0
 6-311+G(2d,p)
 ****
 1  2  3  4  5  17  18  19  20  21  22  23  24  25 0
 3-21G
 ****
 27  28  29  34  36  39  40  41  42  43  44  45  46 0
 3-21G
 ****


