%nproc=1
%NoSave
%Mem=1900MB
#P OB98/GEN NMR

erre ene a

0 1
  C     -833.826    -194.239     349.822
  O     -834.469    -193.226     349.066
  P     -834.169    -193.059     347.499
  C     -835.737    -191.011     347.749
  O     -834.553    -191.530     347.162
  C     -835.712    -189.481     347.702
  O     -834.786    -188.989     348.683
  C     -835.270    -188.911     346.371
  O     -836.305    -188.979     345.401
  C     -834.876    -187.491     346.794
  O     -836.033    -186.662     346.916
  C     -834.240    -187.739     348.184
  N     -832.783    -187.783     348.159
  C     -832.132    -186.541     348.015
  O     -832.772    -185.498     347.943
  N     -830.753    -186.527     348.004
  C     -830.088    -187.638     348.107
  N     -828.732    -187.554     348.163
  C     -830.739    -188.964     348.194
  C     -832.072    -188.950     348.220
  O     -834.827    -194.076     346.620
  O     -832.573    -193.050     347.379
  H     -835.750    -185.835     347.322
  H     -832.189    -193.953     347.287
  H     -830.140    -189.863     348.259
  H     -832.623    -189.888     348.310
  H     -834.571    -186.957     348.893
  H     -834.185    -186.992     346.089
  H     -834.382    -189.435     346.003
  H     -836.723    -189.113     347.959
  H     -828.339    -186.629     348.280
  H     -835.787    -191.340     348.793
  H     -828.171    -188.317     348.522
  H     -836.616    -191.411     347.220
  P     -835.861    -188.912     343.860
  C     -838.364    -188.479     343.287
  O     -837.012    -188.073     343.107
  O     -836.096    -190.425     343.363
  O     -834.459    -188.447     343.623
  H     -835.228    -190.896     343.300
  H     -839.016    -187.672     342.920
  H     -838.574    -188.649     344.338
  H     -838.557    -189.375     342.697
  H     -834.155    -194.188     350.839
  H     -832.766    -194.095     349.782
  H     -834.071    -195.198     349.415

 3  4  5  6  7  8  9  10  11  12  13  23  27  28  29  30  32 0
 6-311+G(2d,p)
 ****
 34  35 0
 6-311+G(2d,p)
 ****
 1  2  14  15  16  17  18  19  20  21  22  24  25  26 0
 3-21G
 ****
 31  33  36  37  38  39  40  41  42  43  44  45  46 0
 3-21G
 ****


