%nproc=1
%NoSave
%Mem=1900MB
#P OB98/GEN NMR

erre ene a

0 1
  C     -583.701     963.743     727.991
  O     -583.868     962.852     729.074
  P     -582.688     961.843     729.495
  C     -581.736     963.334     731.386
  O     -582.423     962.122     731.045
  C     -581.940     963.639     732.882
  O     -583.329     963.945     733.135
  C     -581.608     962.475     733.812
  O     -580.205     962.322     733.960
  C     -582.376     962.885     735.060
  O     -581.614     963.875     735.807
  C     -583.640     963.535     734.475
  N     -584.794     962.632     734.512
  C     -585.712     962.818     735.529
  O     -585.568     963.719     736.363
  N     -586.822     962.011     735.571
  C     -586.993     961.073     734.695
  N     -588.138     960.341     734.746
  C     -586.010     960.795     733.627
  C     -584.942     961.607     733.576
  O     -581.454     961.919     728.627
  O     -583.369     960.396     729.506
  H     -581.425     964.612     735.210
  H     -583.356     959.940     728.632
  H     -586.169     959.994     732.925
  H     -584.186     961.479     732.840
  H     -583.883     964.450     735.031
  H     -582.563     962.048     735.760
  H     -582.028     961.528     733.411
  H     -581.328     964.511     733.127
  H     -588.858     960.694     735.372
  H     -582.165     964.158     730.803
  H     -588.451     959.811     733.955
  H     -580.680     963.236     731.151
  P     -579.654     960.899     734.491
  C     -578.511     960.414     732.219
  O     -578.347     960.581     733.622
  O     -580.769     959.869     733.963
  O     -579.476     960.832     735.976
  H     -581.383     959.626     734.686
  H     -577.516     960.440     731.750
  H     -579.096     961.250     731.792
  H     -578.985     959.480     731.988
  H     -584.590     964.326     727.869
  H     -583.514     963.186     727.097
  H     -582.873     964.391     728.187

 3  4  5  6  7  8  9  10  11  12  13  23  27  28  29  30  32 0
 6-311+G(2d,p)
 ****
 34  35 0
 6-311+G(2d,p)
 ****
 1  2  14  15  16  17  18  19  20  21  22  24  25  26 0
 3-21G
 ****
 31  33  36  37  38  39  40  41  42  43  44  45  46 0
 3-21G
 ****


