%nproc=1
%NoSave
%Mem=1900MB
#P OB98/GEN NMR

erre ene a

0 1
  C     -203.032    -228.799      43.347
  O     -202.683    -229.754      42.362
  H     -204.018    -228.395      43.111
  H     -202.305    -227.979      43.350
  H     -203.068    -229.269      44.332
  P     -201.230    -230.422      42.502
  C     -202.125    -232.116      44.250
  O     -201.181    -231.094      43.961
  C     -201.453    -233.485      44.222
  O     -200.413    -233.568      45.221
  C     -202.398    -234.653      44.474
  O     -203.067    -235.033      43.283
  C     -201.430    -235.719      44.969
  O     -200.743    -236.346      43.865
  C     -200.452    -234.894      45.816
  N     -198.590    -234.221      50.465
  C     -197.940    -234.346      49.254
  N     -196.589    -234.313      49.284
  N     -198.558    -234.499      48.109
  C     -199.902    -234.573      48.234
  C     -200.664    -234.466      49.377
  C     -199.971    -234.242      50.628
  O     -200.495    -234.043      51.719
  N     -202.003    -234.575      49.093
  C     -202.046    -234.777      47.789
  N     -200.795    -234.791      47.225
  O     -200.252    -229.161      42.646
  O     -200.816    -231.300      41.370
  H     -201.395    -236.781      43.289
  H     -199.422    -229.352      42.166
  H     -198.069    -234.073      51.309
  H     -202.952    -234.912      47.207
  H     -199.432    -235.297      45.774
  H     -201.946    -236.519      45.505
  H     -196.069    -234.488      50.132
  H     -203.116    -234.417      45.272
  H     -196.114    -234.476      48.404
  H     -200.966    -233.590      43.243
  H     -202.922    -232.086      43.500
  H     -202.557    -231.937      45.240
  P     -204.573    -235.571      43.397
  C     -205.349    -233.793      41.665
  O     -205.558    -234.384      42.941
  O     -204.804    -235.661      44.983
  O     -204.816    -236.890      42.747
  H     -204.778    -236.592      45.267
  H     -206.076    -233.025      41.504
  H     -205.446    -234.540      40.906
  H     -204.367    -233.369      41.625

 6  7  8  9  10  11  12  13  14  15  26  29  33  34 0
 6-311+G(2d,p)
 ****
 36  38  39  40  41 0
 6-311+G(2d,p)
 ****
 1  2  3  4  5  16  17  18  19  20  21  22  23  24  25 0
 3-21G
 ****
 27  28  30  31  32  35  37  42  43  44  45  46  47 0
 3-21G
 ****
 48  49 0
 3-21G
 ****


