%nproc=1
%NoSave
%Mem=1900MB
#P OB98/GEN NMR

erre ene a

0 1
  C      278.991    -273.690      45.095
  O      278.868    -272.281      45.103
  H      279.986    -273.954      44.729
  H      278.242    -274.120      44.425
  H      278.868    -274.097      46.103
  P      277.623    -271.668      45.910
  C      279.295    -271.319      47.864
  O      278.004    -271.755      47.468
  C      279.605    -271.795      49.278
  O      281.014    -271.653      49.562
  C      278.868    -271.031      50.375
  O      277.553    -271.535      50.571
  C      279.752    -271.334      51.573
  O      279.486    -272.673      52.045
  C      281.157    -271.266      50.957
  N      283.349    -267.829      53.977
  C      282.769    -269.045      54.293
  N      282.763    -269.387      55.598
  N      282.234    -269.847      53.409
  C      282.290    -269.365      52.146
  C      282.833    -268.175      51.708
  C      283.435    -267.306      52.694
  O      283.973    -266.224      52.464
  N      282.702    -268.028      50.353
  C      282.059    -269.115      49.974
  N      281.784    -269.957      51.021
  O      276.497    -272.794      45.730
  O      277.145    -270.340      45.429
  H      279.450    -273.251      51.260
  H      275.862    -272.498      45.049
  H      283.737    -267.245      54.696
  H      281.780    -269.343      48.952
  H      281.849    -271.973      51.425
  H      279.569    -270.662      52.412
  H      283.138    -268.806      56.332
  H      278.865    -269.951      50.183
  H      282.346    -270.274      55.851
  H      279.369    -272.867      49.331
  H      279.329    -270.226      47.832
  H      280.037    -271.723      47.164
  P      276.460    -270.566      51.230
  C      275.583    -269.965      48.865
  O      276.059    -269.483      50.115
  O      277.329    -269.721      52.277
  O      275.319    -271.252      51.900
  H      277.078    -269.961      53.191
  H      275.357    -269.137      48.226
  H      274.699    -270.548      49.021
  H      276.335    -270.573      48.407

 6  7  8  9  10  11  12  13  14  15  26  29  33  34 0
 6-311+G(2d,p)
 ****
 36  38  39  40  41 0
 6-311+G(2d,p)
 ****
 1  2  3  4  5  16  17  18  19  20  21  22  23  24  25 0
 3-21G
 ****
 27  28  30  31  32  35  37  42  43  44  45  46  47 0
 3-21G
 ****
 48  49 0
 3-21G
 ****


