%nproc=1
%NoSave
%Mem=1900MB
#P OB98/GEN NMR

erre ene a

0 1
  C      244.369     319.118    -451.873
  O      244.400     320.095    -450.850
  H      243.684     319.451    -452.653
  H      244.006     318.166    -451.470
  H      245.366     318.980    -452.311
  P      245.439     319.920    -449.637
  C      243.864     318.824    -447.906
  O      244.965     318.642    -448.788
  C      243.598     317.555    -447.089
  O      244.830     317.144    -446.441
  C      242.528     317.724    -446.005
  O      241.753     316.527    -445.903
  C      243.340     317.911    -444.736
  O      242.623     317.514    -443.568
  C      244.576     317.053    -445.020
  N      247.643     315.927    -441.163
  C      246.600     315.193    -441.721
  N      246.328     314.003    -441.160
  N      245.892     315.611    -442.739
  C      246.295     316.822    -443.213
  C      247.294     317.638    -442.754
  C      248.063     317.174    -441.613
  O      248.970     317.786    -441.065
  N      247.382     318.795    -443.487
  C      246.427     318.677    -444.399
  N      245.729     317.501    -444.264
  O      245.673     321.157    -448.830
  O      246.786     319.416    -450.345
  H      243.078     317.915    -442.803
  H      247.442     320.129    -450.388
  H      248.142     315.566    -440.368
  H      246.200     319.406    -445.163
  H      244.418     315.991    -444.773
  H      243.617     318.973    -444.623
  H      246.856     313.607    -440.381
  H      241.871     318.575    -446.202
  H      245.607     313.436    -441.564
  H      243.326     316.749    -447.785
  H      242.979     319.071    -448.510
  H      244.067     319.667    -447.232
  P      240.596     316.252    -446.981
  C      238.493     316.983    -445.694
  O      239.408     317.311    -446.738
  O      240.157     314.831    -447.117
  O      241.251     316.785    -448.358
  H      240.938     316.223    -449.093
  H      237.749     317.748    -445.618
  H      239.022     316.907    -444.767
  H      238.022     316.048    -445.914

 6  7  8  9  10  11  12  13  14  15  26  29  33  34 0
 6-311+G(2d,p)
 ****
 36  38  39  40  41 0
 6-311+G(2d,p)
 ****
 1  2  3  4  5  16  17  18  19  20  21  22  23  24  25 0
 3-21G
 ****
 27  28  30  31  32  35  37  42  43  44  45  46  47 0
 3-21G
 ****
 48  49 0
 3-21G
 ****


