%nproc=1
%NoSave
%Mem=1900MB
#P OB98/GEN NMR

erre ene a

0 1
  C      252.475     -95.620      46.687
  O      252.922     -95.591      45.347
  H      251.956     -96.565      46.865
  H      251.773     -94.800      46.854
  H      253.315     -95.540      47.383
  P      254.034     -94.501      44.968
  C      252.679     -93.863      42.849
  O      253.930     -94.271      43.381
  C      252.354     -94.657      41.583
  O      252.145     -96.054      41.951
  C      251.092     -94.175      40.846
  O      251.304     -94.302      39.434
  C      250.049     -95.196      41.263
  O      248.975     -95.282      40.335
  C      250.904     -96.456      41.343
  N      249.566    -101.290      41.176
  C      250.397    -100.559      40.350
  N      250.907    -101.194      39.272
  N      250.699     -99.305      40.557
  C      250.138     -98.796      41.682
  C      249.299     -99.411      42.578
  C      248.956    -100.796      42.327
  O      248.211    -101.490      43.009
  N      248.895     -98.534      43.553
  C      249.473     -97.388      43.233
  N      250.237     -97.497      42.104
  O      255.400     -95.321      45.141
  O      254.022     -93.260      45.794
  H      248.431     -96.063      40.567
  H      255.768     -95.165      46.030
  H      249.352    -102.249      40.961
  H      249.356     -96.458      43.769
  H      251.127     -96.877      40.354
  H      249.639     -94.933      42.246
  H      250.743    -102.166      39.061
  H      250.803     -93.146      41.085
  H      251.549    -100.682      38.679
  H      253.224     -94.627      40.917
  H      252.724     -92.798      42.599
  H      251.900     -94.013      43.603
  P      251.382     -92.962      38.559
  C      250.043     -93.247      36.345
  O      251.295     -93.357      37.006
  O      252.905     -92.504      38.736
  O      250.435     -91.896      39.000
  H      252.958     -91.529      38.741
  H      250.152     -93.545      35.323
  H      249.706     -92.232      36.387
  H      249.328     -93.881      36.827

 6  7  8  9  10  11  12  13  14  15  26  29  33  34 0
 6-311+G(2d,p)
 ****
 36  38  39  40  41 0
 6-311+G(2d,p)
 ****
 1  2  3  4  5  16  17  18  19  20  21  22  23  24  25 0
 3-21G
 ****
 27  28  30  31  32  35  37  42  43  44  45  46  47 0
 3-21G
 ****
 48  49 0
 3-21G
 ****


