%nproc=1
%NoSave
%Mem=1900MB
#P OB98/GEN NMR

erre ene a

0 1
  C      131.342      31.344      83.894
  O      131.091      32.341      82.922
  H      130.748      31.566      84.784
  H      132.400      31.342      84.167
  H      131.051      30.363      83.509
  P      131.857      32.181      81.520
  C      134.179      32.994      80.712
  O      133.347      32.689      81.824
  C      135.651      32.849      81.088
  O      135.999      31.462      81.243
  C      136.622      33.407      80.055
  O      136.744      34.813      80.184
  C      137.903      32.691      80.453
  O      138.497      33.352      81.588
  C      137.393      31.298      80.868
  N      140.558      28.422      78.027
  C      140.789      29.471      78.843
  N      139.897      30.214      79.534
  C      138.646      29.779      79.316
  C      138.255      28.719      78.509
  C      139.279      28.017      77.851
  N      139.039      26.938      77.026
  N      136.885      28.568      78.528
  C      136.460      29.484      79.376
  N      137.483      30.266      79.850
  O      131.178      32.784      80.339
  O      132.046      30.591      81.456
  H      139.188      32.760      81.942
  H      132.254      30.236      82.338
  H      141.832      29.753      78.962
  H      135.432      29.613      79.690
  H      137.927      30.915      81.745
  H      138.647      32.696      79.655
  H      136.342      33.105      79.041
  H      135.797      33.331      82.063
  H      133.983      34.012      80.357
  H      139.805      26.603      76.464
  H      138.079      26.719      76.800
  H      133.923      32.294      79.910
  P      137.082      35.725      78.909
  C      139.236      36.245      77.603
  O      138.553      35.304      78.423
  O      136.892      37.187      79.110
  O      136.142      35.157      77.749
  H      135.807      35.888      77.194
  H      140.199      35.858      77.343
  H      139.353      37.165      78.137
  H      138.669      36.420      76.712

 6  7  8  9  10  11  12  13  14  15  25  28  32  33  34  35 0
 6-311+G(2d,p)
 ****
 36  39  40 0
 6-311+G(2d,p)
 ****
 1  2  3  4  5  16  17  18  19  20  21  22  23  24 0
 3-21G
 ****
 26  27  29  30  31  37  38  41  42  43  44  45  46  47 0
 3-21G
 ****
 48 0
 3-21G
 ****


