%nproc=1
%NoSave
%Mem=1900MB
#P OB98/GEN NMR

erre ene a

0 1
  C     -154.470      76.592    -271.444
  O     -154.393      76.967    -272.811
  P     -153.125      76.433    -273.658
  C     -150.566      76.835    -273.522
  O     -151.857      77.232    -273.069
  C     -149.699      78.063    -273.795
  O     -149.795      78.977    -272.673
  C     -148.208      77.772    -273.953
  O     -147.898      77.309    -275.251
  C     -147.603      79.153    -273.693
  O     -147.676      79.944    -274.894
  C     -148.551      79.716    -272.609
  N     -147.706      82.163    -268.256
  C     -148.316      82.609    -269.421
  N     -148.770      83.875    -269.410
  N     -148.450      81.873    -270.498
  C     -147.970      80.613    -270.349
  C     -147.353      80.058    -269.238
  C     -147.161      80.884    -268.075
  O     -146.583      80.585    -267.039
  N     -147.004      78.743    -269.469
  C     -147.458      78.491    -270.683
  N     -148.014      79.624    -271.273
  O     -153.345      77.089    -275.095
  O     -152.992      74.936    -273.734
  H     -147.185      80.769    -274.706
  H     -152.899      76.555    -275.780
  H     -147.647      82.758    -267.443
  H     -147.406      77.519    -271.168
  H     -148.802      80.774    -272.823
  H     -146.564      79.102    -273.393
  H     -148.831      84.445    -268.573
  H     -147.863      77.068    -273.185
  H     -149.251      84.212    -270.237
  H     -150.093      78.567    -274.695
  H     -150.665      76.260    -274.465
  H     -150.098      76.178    -272.767
  P     -146.529      76.485    -275.416
  C     -144.006      77.162    -275.499
  O     -145.347      77.581    -275.285
  O     -146.523      76.082    -276.957
  O     -146.421      75.292    -274.519
  H     -145.987      75.270    -277.094
  H     -143.944      76.391    -276.276
  H     -143.613      76.771    -274.552
  H     -143.424      78.040    -275.804
  H     -155.353      77.011    -271.008
  H     -153.608      76.957    -270.925
  H     -154.507      75.525    -271.368

 3  4  5  6  7  8  9  10  11  12  23  26  30  31  33  0
 6-311+G(2d,p)
 ****
 35  36  37  38 0
 6-311+G(2d,p)
 ****
 1  2  13  14  15  16  17  18  19  20  21  22  24  25  27  28  29 0
 3-21G
 ****
 32  34  39  40  41  42  43  44  45  46  47  48  49 0
 3-21G
 ****


