%nproc=1
%NoSave
%Mem=1900MB
#P OB98/GEN NMR

erre ene a

0 1
  C       18.776      49.829      53.271
  O       18.286      48.577      52.832
  H       19.671      50.102      52.706
  H       18.008      50.586      53.101
  H       19.006      49.793      54.340
  P       19.262      47.318      53.024
  C       18.550      47.114      55.511
  O       19.617      47.264      54.588
  C       18.560      45.708      56.102
  O       19.754      45.505      56.883
  C       17.398      45.403      57.041
  O       16.214      45.080      56.328
  C       17.946      44.195      57.787
  O       17.806      43.017      56.972
  C       19.431      44.559      57.936
  N       22.116      44.024      62.257
  C       22.069      43.286      61.128
  N       21.345      43.503      60.011
  C       20.624      44.630      60.127
  C       20.585      45.499      61.204
  C       21.372      45.157      62.316
  N       21.360      45.887      63.494
  N       19.714      46.543      60.960
  C       19.223      46.296      59.764
  N       19.748      45.157      59.218
  O       20.623      47.816      52.339
  O       18.776      46.041      52.426
  H       18.427      42.354      57.329
  H       20.666      47.474      51.428
  H       22.693      42.398      61.122
  H       18.489      46.908      59.259
  H       20.085      43.690      57.802
  H       17.427      44.000      58.729
  H       17.232      46.218      57.754
  H       18.584      44.993      55.269
  H       17.597      47.283      54.997
  H       21.561      45.328      64.318
  H       20.598      46.550      63.567
  H       18.664      47.859      56.303
  P       14.811      45.301      57.074
  C       14.406      47.438      55.675
  O       14.483      46.870      56.975
  O       15.189      45.087      58.615
  O       13.715      44.383      56.654
  H       14.626      44.387      58.998
  H       14.183      48.482      55.754
  H       13.634      46.950      55.118
  H       15.343      47.311      55.174

 6  7  8  9  10  11  12  13  14  15  25  28  32  33  34  35 0
 6-311+G(2d,p)
 ****
 36  39  40 0
 6-311+G(2d,p)
 ****
 1  2  3  4  5  16  17  18  19  20  21  22  23  24 0
 3-21G
 ****
 26  27  29  30  31  37  38  41  42  43  44  45  46  47  48 0
 3-21G
 ****


