%nproc=1
%NoSave
%Mem=1900MB
#P OB98/GEN NMR

erre ene a

0 1
  C      286.797    -662.924     473.084
  O      285.545    -662.637     473.673
  P      284.491    -661.621     473.031
  C      284.786    -659.127     472.392
  O      284.956    -660.119     473.386
  C      285.486    -657.802     472.732
  O      286.823    -658.083     473.206
  C      285.663    -656.937     471.473
  O      284.590    -656.125     471.031
  C      286.984    -656.223     471.651
  O      286.829    -654.896     472.141
  C      287.724    -657.092     472.677
  N      292.765    -657.599     473.006
  C      291.881    -657.021     473.908
  N      292.454    -656.357     474.936
  N      290.574    -657.103     473.798
  C      290.162    -657.744     472.666
  C      290.940    -658.356     471.707
  C      292.375    -658.300     471.866
  O      293.193    -658.709     471.036
  N      290.182    -658.819     470.667
  C      288.953    -658.466     470.982
  N      288.901    -657.765     472.161
  O      283.050    -661.973     473.187
  O      284.850    -661.731     471.460
  H      287.706    -654.466     472.151
  H      284.019    -661.632     470.959
  H      293.754    -657.444     473.088
  H      288.072    -658.640     470.369
  H      288.056    -656.478     473.537
  H      287.517    -656.137     470.693
  H      293.430    -656.146     474.971
  H      285.815    -657.634     470.628
  H      291.839    -655.789     475.516
  H      284.983    -657.280     473.555
  H      283.702    -658.954     472.276
  H      285.154    -659.487     471.424
  P      284.420    -655.479     469.573
  C      285.477    -653.583     468.213
  O      285.298    -654.143     469.504
  O      282.924    -654.916     469.552
  O      284.633    -656.436     468.441
  H      282.609    -654.833     468.629
  H      286.310    -652.873     468.238
  H      284.580    -653.044     467.908
  H      285.688    -654.373     467.472
  H      287.325    -663.628     473.693
  H      287.369    -662.023     473.004
  H      286.646    -663.338     472.109

 3  4  5  6  7  8  9  10  11  12  23  26  30  31 0
 6-311+G(2d,p)
 ****
 33  35  36  37  38 0
 6-311+G(2d,p)
 ****
 1  2  13  14  15  16  17  18  19  20  21  22  24  25 0
 3-21G
 ****
 27  28  29  32  34  39  40  41  42  43  44  45  46  47  48  49 0
 3-21G
 ****


