%nproc=1
%NoSave
%Mem=1900MB
#P OB98/GEN NMR

erre ene a

0 1
  C     -898.910    -751.484    -891.033
  O     -898.560    -750.192    -891.463
  H     -900.000    -751.612    -891.033
  H     -898.530    -751.679    -890.023
  H     -898.490    -752.269    -891.723
  P     -897.050    -749.948    -891.843
  C     -897.040    -750.755    -894.323
  O     -896.630    -751.039    -892.993
  C     -896.150    -751.519    -895.323
  O     -894.760    -751.079    -895.183
  C     -896.160    -753.069    -895.103
  O     -896.160    -753.727    -896.403
  C     -894.870    -753.320    -894.373
  O     -894.380    -754.659    -894.553
  C     -893.970    -752.242    -894.983
  N     -889.300    -753.692    -893.693
  C     -890.150    -754.168    -894.703
  N     -889.670    -755.158    -895.443
  N     -891.340    -753.704    -894.903
  C     -891.650    -752.670    -894.103
  C     -890.950    -752.100    -893.063
  C     -889.640    -752.663    -892.803
  O     -888.820    -752.319    -891.903
  N     -891.640    -751.104    -892.433
  C     -892.770    -751.038    -893.053
  N     -892.870    -751.949    -894.113
  O     -896.220    -750.450    -890.553
  O     -896.660    -748.535    -892.163
  H     -893.450    -754.697    -894.253
  H     -895.740    -749.726    -890.133
  H     -888.380    -754.117    -893.543
  H     -893.610    -750.350    -892.813
  H     -893.560    -752.554    -895.953
  H     -895.010    -753.212    -893.293
  H     -888.710    -755.528    -895.373
  H     -897.080    -753.401    -894.543
  H     -890.250    -755.473    -896.253
  H     -896.470    -751.286    -896.373
  H     -896.940    -749.688    -894.523
  H     -898.110    -751.061    -894.473
  P     -897.550    -754.210    -897.003
  C     -897.470    -753.213    -899.353
  O     -898.110    -753.183    -898.093
  O     -898.610    -754.010    -895.733
  O     -897.570    -755.654    -897.403
  H     -898.790    -754.851    -895.303
  H     -897.922    -752.490    -900.000
  H     -897.571    -754.188    -899.782
  H     -896.432    -752.983    -899.232

 6  7  8  9  10  11  12  13  14  15  26  29  33  34 0
 6-311+G(2d,p)
 ****
 36  38  39  40  41 0
 6-311+G(2d,p)
 ****
 1  2  3  4  5  16  17  18  19  20  21  22  23  24  25 0
 3-21G
 ****
 27  28  30  31  32  35  37  42  43  44  45  46  47 0
 3-21G
 ****
 48  49 0
 3-21G
 ****


