%nproc=1
%NoSave
%Mem=1900MB
#P OB98/GEN NMR

erre ene a

0 1
  C      116.985    -282.652     114.924
  O      117.330    -283.657     115.857
  H      117.563    -282.808     114.010
  H      117.228    -281.667     115.333
  H      115.919    -282.704     114.684
  P      116.463    -283.719     117.207
  C      115.955    -286.281     117.474
  O      116.747    -285.165     117.839
  C      116.569    -287.576     118.012
  O      117.796    -287.843     117.288
  C      116.908    -287.523     119.502
  O      116.675    -288.815     120.065
  C      118.400    -287.233     119.511
  O      119.020    -287.647     120.725
  C      118.858    -287.986     118.253
  N      120.129    -287.482     117.734
  C      121.198    -287.433     118.632
  O      121.045    -287.792     119.800
  N      122.404    -286.943     118.202
  C      122.518    -286.478     116.998
  N      123.731    -285.982     116.640
  C      121.403    -286.467     116.030
  C      120.253    -286.987     116.456
  O      114.974    -283.840     116.633
  O      116.676    -282.566     118.130
  H      118.781    -287.008     121.432
  H      114.891    -284.475     115.903
  H      121.543    -286.059     115.039
  H      119.386    -287.028     115.810
  H      118.974    -289.056     118.465
  H      118.575    -286.158     119.396
  H      116.327    -286.772     120.042
  H      115.884    -288.403     117.793
  H      124.461    -285.988     117.341
  H      115.867    -286.346     116.386
  H      123.918    -285.545     115.749
  H      114.953    -286.134     117.889
  P      115.193    -289.228     120.506
  C      115.137    -291.812     120.599
  O      115.248    -290.599     121.334
  O      114.159    -289.174     119.432
  O      114.856    -288.151     121.653
  H      113.928    -287.871     121.535
  H      115.189    -292.643     121.272
  H      115.938    -291.875     119.892
  H      114.201    -291.831     120.081

 6  7  8  9  10  11  12  13  14  15  16  26  30  31  32  33  35 0
 6-311+G(2d,p)
 ****
 37  38 0
 6-311+G(2d,p)
 ****
 1  2  3  4  5  17  18  19  20  21  22  23  24  25 0
 3-21G
 ****
 27  28  29  34  36  39  40  41  42  43  44  45  46 0
 3-21G
 ****


