%nproc=1
%NoSave
%Mem=1900MB
#P OB98/GEN NMR

erre ene a

0 1
  C      255.780    -257.054     459.817
  O      257.152    -257.099     460.163
  P      257.513    -257.454     461.698
  C      258.535    -255.098     462.127
  O      257.556    -256.065     462.508
  C      258.789    -254.106     463.263
  O      259.783    -253.144     462.822
  C      257.546    -253.311     463.720
  O      257.686    -253.115     465.135
  C      257.709    -252.007     462.963
  O      256.931    -250.934     463.466
  C      259.223    -251.831     463.053
  N      262.425    -247.890     462.302
  C      262.200    -248.683     463.383
  N      261.341    -249.716     463.503
  C      260.668    -249.911     462.347
  C      260.779    -249.188     461.182
  C      261.706    -248.125     461.187
  N      261.928    -247.316     460.080
  N      259.914    -249.666     460.216
  C      259.292    -250.671     460.798
  N      259.739    -250.868     462.083
  O      259.054    -257.877     461.608
  O      256.662    -258.526     462.315
  H      255.982    -251.165     463.431
  H      259.245    -258.626     462.214
  H      262.793    -248.460     464.272
  H      258.514    -251.263     460.342
  H      259.541    -251.493     464.045
  H      257.412    -252.159     461.922
  H      256.607    -253.828     463.524
  H      259.217    -254.655     464.110
  H      258.150    -254.538     461.262
  H      262.454    -246.470     460.250
  H      261.250    -247.367     459.336
  H      259.451    -255.606     461.827
  P      256.367    -252.933     466.030
  C      257.155    -250.553     466.614
  O      256.133    -251.341     466.059
  O      256.946    -253.197     467.501
  O      255.205    -253.790     465.661
  H      257.747    -252.656     467.673
  H      256.921    -249.500     466.482
  H      258.117    -250.763     466.116
  H      257.257    -250.766     467.692
  H      255.682    -256.810     458.780
  H      255.288    -256.309     460.407
  H      255.334    -258.009     460.003

 3  4  5  6  7  8  9  10  11  12  22  25  29  30  31  32 0
 6-311+G(2d,p)
 ****
 33  36  37 0
 6-311+G(2d,p)
 ****
 1  2  13  14  15  16  17  18  19  20  21  23  24  26 0
 3-21G
 ****
 27  28  34  35  38  39  40  41  42  43  44  45  46  47  48 0
 3-21G
 ****


