%nproc=1
%NoSave
%Mem=1900MB
#P OB98/GEN NMR

erre ene a

0 1
  C      -43.775    -501.295     104.520
  O      -44.040    -502.648     104.162
  P      -44.766    -502.915     102.754
  C      -46.757    -503.966     104.047
  O      -46.332    -503.001     103.088
  C      -47.874    -503.406     104.915
  O      -47.400    -502.243     105.626
  C      -49.101    -502.945     104.151
  O      -49.952    -504.022     103.811
  C      -49.757    -502.025     105.175
  O      -50.515    -502.811     106.109
  C      -48.542    -501.386     105.866
  N      -49.821    -496.490     106.049
  C      -50.374    -497.570     106.699
  N      -51.401    -497.311     107.541
  N      -49.965    -498.801     106.541
  C      -48.909    -498.911     105.700
  C      -48.277    -497.910     104.998
  C      -48.771    -496.560     105.145
  O      -48.361    -495.566     104.544
  N      -47.230    -498.406     104.256
  C      -47.205    -499.692     104.544
  N      -48.228    -500.055     105.391
  O      -44.373    -504.432     102.430
  O      -44.371    -501.988     101.655
  H      -50.610    -502.282     106.920
  H      -44.404    -504.580     101.463
  H      -50.164    -495.560     106.224
  H      -46.483    -500.397     104.163
  H      -48.687    -501.345     106.956
  H      -50.449    -501.308     104.718
  H      -51.671    -496.373     107.807
  H      -48.816    -502.360     103.265
  H      -51.795    -498.085     108.060
  H      -48.143    -504.167     105.657
  H      -45.903    -504.235     104.686
  H      -47.090    -504.866     103.518
  P      -50.122    -504.346     102.243
  C      -52.646    -503.777     102.533
  O      -51.450    -503.568     101.796
  O      -50.550    -505.886     102.229
  O      -48.899    -504.081     101.429
  H      -50.293    -506.298     101.381
  H      -52.435    -503.903     103.605
  H      -53.149    -504.666     102.156
  H      -53.292    -502.913     102.406
  H      -43.292    -501.267     105.475
  H      -44.696    -500.752     104.570
  H      -43.138    -500.850     103.785

 3  4  5  6  7  8  9  10  11  12  23  26  30  31  33  0
 6-311+G(2d,p)
 ****
 35  36  37  38 0
 6-311+G(2d,p)
 ****
 1  2  13  14  15  16  17  18  19  20  21  22  24  25  27  28  29 0
 3-21G
 ****
 32  34  39  40  41  42  43  44  45  46  47  48  49 0
 3-21G
 ****


