%nproc=1
%NoSave
%Mem=1900MB
#P OB98/GEN NMR

erre ene a

0 1
  C       23.308     -83.639     -71.446
  O       23.073     -82.530     -70.597
  H       22.591     -83.604     -72.273
  H       23.176     -84.580     -70.906
  H       24.319     -83.584     -71.859
  P       23.805     -82.505     -69.168
  C       23.720     -83.992     -67.057
  O       23.352     -83.863     -68.430
  C       23.110     -85.250     -66.437
  O       23.640     -86.438     -67.065
  C       23.416     -85.425     -64.955
  O       22.822     -84.463     -64.115
  C       23.099     -86.897     -64.741
  O       21.705     -87.133     -64.545
  C       23.553     -87.506     -66.094
  N       24.811     -88.237     -65.980
  C       24.714     -89.555     -65.545
  O       23.649     -90.096     -65.244
  N       25.900     -90.234     -65.433
  C       27.142     -89.720     -65.660
  O       28.169     -90.377     -65.521
  C       27.185     -88.307     -66.081
  C       26.033     -87.640     -66.220
  O       23.584     -81.268     -68.348
  O       25.343     -82.779     -69.517
  H       21.240     -86.742     -65.310
  H       25.930     -82.546     -68.757
  H       25.848     -91.196     -65.134
  H       28.156     -87.864     -66.257
  H       26.041     -86.598     -66.531
  H       22.789     -88.204     -66.470
  H       23.625     -87.311     -63.877
  H       24.500     -85.318     -64.816
  H       22.029     -85.232     -66.623
  H       23.343     -83.110     -66.527
  H       24.811     -84.019     -66.974
  P       23.643     -83.334     -63.341
  C       25.701     -83.300     -61.724
  O       24.628     -84.041     -62.293
  O       22.870     -82.137     -62.882
  O       24.673     -82.839     -64.488
  H       24.818     -81.879     -64.348
  H       26.250     -83.926     -61.052
  H       25.310     -82.460     -61.190
  H       26.350     -82.957     -62.503

 6  7  8  9  10  11  12  13  14  15  16  26  31  32  33  34  35 0
 6-311+G(2d,p)
 ****
 36  37 0
 6-311+G(2d,p)
 ****
 1  2  3  4  5  17  18  19  20  21  22  23  24  25 0
 3-21G
 ****
 27  28  29  30  38  39  40  41  42  43  44  45 0
 3-21G
 ****


