%nproc=1
%NoSave
%Mem=1900MB
#P OB98/GEN NMR

erre ene a

0 1
  C     -304.406     -98.388     921.235
  O     -303.121     -98.917     921.566
  P     -302.855    -100.136     922.564
  C     -301.478    -101.924     921.214
  O     -302.739    -101.476     921.702
  C     -301.616    -103.263     920.475
  O     -302.027    -104.290     921.435
  C     -302.691    -103.222     919.376
  O     -302.310    -103.880     918.173
  C     -303.930    -103.743     920.085
  O     -304.932    -104.212     919.209
  C     -303.331    -104.776     921.039
  N     -307.466    -107.085     922.954
  C     -307.055    -106.970     921.647
  N     -307.860    -107.514     920.711
  N     -305.969    -106.351     921.283
  C     -305.298    -105.768     922.299
  C     -305.604    -105.802     923.644
  C     -306.791    -106.536     924.048
  O     -307.185    -106.692     925.199
  N     -304.690    -105.116     924.387
  C     -303.829    -104.646     923.492
  N     -304.163    -105.027     922.211
  O     -303.731    -100.189     923.781
  O     -301.345     -99.892     923.068
  H     -305.665    -104.572     919.754
  H     -301.297    -100.231     923.982
  H     -308.301    -107.601     923.187
  H     -302.955    -104.046     923.718
  H     -303.193    -105.745     920.557
  H     -304.361    -102.910     920.654
  H     -308.768    -107.905     920.916
  H     -302.876    -102.185     919.047
  H     -307.670    -107.232     919.749
  H     -300.636    -103.554     920.071
  H     -300.842    -102.048     922.085
  H     -301.021    -101.163     920.573
  P     -302.196    -103.284     916.698
  C     -299.720    -103.296     915.978
  O     -300.782    -102.533     916.561
  O     -303.242    -102.069     916.661
  O     -302.486    -104.254     915.601
  H     -303.915    -102.245     915.984
  H     -298.779    -102.782     916.189
  H     -299.870    -103.361     914.904
  H     -299.692    -104.291     916.419
  H     -304.291     -97.577     920.546
  H     -304.886     -98.035     922.124
  H     -305.003     -99.155     920.787

 3  4  5  6  7  8  9  10  11  12  23  26  30  31 0
 6-311+G(2d,p)
 ****
 33  35  36  37  38 0
 6-311+G(2d,p)
 ****
 1  2  13  14  15  16  17  18  19  20  21  22  24  25 0
 3-21G
 ****
 27  28  29  32  34  39  40  41  42  43  44  45  46  47  48  49 0
 3-21G
 ****


