%nproc=1
%NoSave
%Mem=1900MB
#P OB98/GEN NMR

erre ene a

0 1
  C     -420.689    -129.669     301.240
  O     -420.599    -128.630     302.196
  H     -421.697    -130.092     301.246
  H     -420.483    -129.252     300.250
  H     -419.954    -130.451     301.454
  P     -420.694    -129.058     303.739
  C     -422.576    -127.472     304.583
  O     -421.182    -127.743     304.527
  C     -422.869    -126.396     305.629
  O     -422.459    -126.889     306.933
  C     -422.131    -125.081     305.375
  O     -422.995    -123.993     305.714
  C     -420.964    -125.136     306.346
  O     -420.485    -123.841     306.692
  C     -421.579    -125.907     307.511
  N     -417.977    -125.133     311.047
  C     -418.898    -124.312     310.504
  N     -419.828    -124.600     309.569
  C     -419.774    -125.903     309.233
  C     -418.891    -126.860     309.702
  C     -417.945    -126.429     310.647
  N     -416.979    -127.249     311.180
  N     -419.130    -128.077     309.090
  C     -420.140    -127.855     308.273
  N     -420.563    -126.556     308.323
  O     -419.151    -129.191     304.151
  O     -421.460    -130.304     304.022
  H     -419.832    -123.938     307.417
  H     -418.805    -130.052     303.841
  H     -418.884    -123.284     310.863
  H     -420.594    -128.594     307.624
  H     -422.165    -125.265     308.180
  H     -420.136    -125.697     305.898
  H     -421.799    -124.973     304.342
  H     -423.954    -126.242     305.677
  H     -423.107    -128.394     304.844
  H     -416.304    -126.842     311.808
  H     -416.904    -128.199     310.849
  H     -422.916    -127.132     303.597
  P     -423.037    -122.758     304.689
  C     -421.860    -120.955     306.133
  O     -423.074    -121.390     305.533
  O     -424.504    -122.853     304.054
  O     -421.982    -122.824     303.633
  H     -424.451    -122.806     303.083
  H     -422.030    -120.039     306.659
  H     -421.123    -120.799     305.373
  H     -421.514    -121.700     306.818

 6  7  8  9  10  11  12  13  14  15  25  28  32  33  34  35 0
 6-311+G(2d,p)
 ****
 36  39  40 0
 6-311+G(2d,p)
 ****
 1  2  3  4  5  16  17  18  19  20  21  22  23  24 0
 3-21G
 ****
 26  27  29  30  31  37  38  41  42  43  44  45  46  47 0
 3-21G
 ****
 48 0
 3-21G
 ****


