%nproc=1
%NoSave
%Mem=1900MB
#P OB98/GEN NMR

erre ene a

0 1
  C       20.561    -101.488     -70.351
  O       20.052    -100.820     -71.486
  H       20.393    -102.561     -70.470
  H       20.038    -101.151     -69.452
  H       21.635    -101.312     -70.244
  P       20.332     -99.252     -71.651
  C       17.895     -98.695     -71.008
  O       19.271     -98.491     -70.723
  C       17.016     -98.102     -69.899
  O       17.308     -96.675     -69.790
  C       15.501     -98.236     -70.155
  O       14.866     -98.324     -68.870
  C       15.206     -96.908     -70.829
  O       13.830     -96.647     -70.932
  C       16.048     -95.983     -69.939
  N       16.258     -94.637     -70.457
  C       15.813     -93.570     -69.682
  O       15.258     -93.680     -68.590
  N       16.023     -92.323     -70.213
  C       16.631     -92.047     -71.402
  O       16.820     -90.909     -71.811
  C       17.073     -93.217     -72.177
  C       16.875     -94.438     -71.675
  O       20.418     -98.752     -73.054
  O       21.711     -99.031     -70.864
  H       22.446     -98.965     -71.503
  H       13.392     -96.902     -70.092
  H       15.710     -91.537     -69.664
  H       17.549     -93.033     -73.131
  H       17.199     -95.318     -72.220
  H       15.599     -95.917     -68.942
  H       15.588     -96.917     -71.854
  H       15.242     -99.115     -70.750
  H       17.298     -98.558     -68.943
  H       17.717     -99.773     -71.081
  H       17.654     -98.228     -71.969
  P       14.415     -99.710     -68.200
  C       12.261    -100.059     -69.592
  O       13.566    -100.535     -69.284
  O       13.720     -99.550     -66.888
  O       15.764    -100.560     -68.039
  H       15.665    -101.192     -67.302
  H       11.812    -100.698     -70.323
  H       12.327     -99.064     -69.980
  H       11.663    -100.057     -68.704

 6  7  8  9  10  11  12  13  14  15  16  27  31  32  33  34  35 0
 6-311+G(2d,p)
 ****
 36  37 0
 6-311+G(2d,p)
 ****
 1  2  3  4  5  17  18  19  20  21  22  23  24  25 0
 3-21G
 ****
 26  28  29  30  38  39  40  41  42  43  44  45 0
 3-21G
 ****


