%nproc=1
%NoSave
%Mem=1900MB
#P OB98/GEN NMR

erre ene a

0 1
  C     -146.944     -86.508     -85.794
  O     -146.954     -86.932     -84.446
  P     -148.239     -86.711     -83.517
  C     -148.644     -89.237     -83.686
  O     -149.235     -87.946     -83.750
  C     -148.582     -89.753     -82.249
  O     -149.932     -89.841     -81.712
  C     -147.930     -91.137     -82.106
  O     -147.164     -91.118     -80.894
  C     -149.119     -92.066     -81.970
  O     -148.779     -93.293     -81.342
  C     -150.091     -91.176     -81.188
  N     -151.470     -91.626     -81.299
  C     -152.074     -92.106     -80.134
  O     -151.408     -92.256     -79.109
  N     -153.412     -92.413     -80.167
  C     -154.036     -92.426     -81.304
  N     -155.375     -92.670     -81.284
  C     -153.362     -92.167     -82.592
  C     -152.104     -91.734     -82.512
  O     -148.878     -85.367     -83.631
  O     -147.697     -86.961     -82.030
  H     -147.931     -86.193     -81.470
  H     -147.984     -93.664     -81.782
  H     -153.889     -92.309     -83.522
  H     -151.533     -91.492     -83.401
  H     -149.814     -91.143     -80.128
  H     -149.523     -92.291     -82.967
  H     -147.272     -91.382     -82.945
  H     -148.043     -89.017     -81.645
  H     -155.811     -92.802     -80.381
  H     -147.629     -89.166     -84.082
  H     -155.988     -92.389     -82.050
  H     -149.203     -89.932     -84.322
  P     -145.932     -92.143     -80.755
  C     -144.156     -90.268     -80.508
  O     -144.605     -91.384     -81.243
  O     -146.211     -93.147     -81.979
  O     -145.845     -92.912     -79.481
  H     -145.799     -94.008     -81.783
  H     -143.287     -89.838     -81.018
  H     -143.853     -90.570     -79.502
  H     -144.938     -89.502     -80.446
  H     -145.999     -86.747     -86.236
  H     -147.100     -85.450     -85.836
  H     -147.725     -87.006     -86.330

 3  4  5  6  7  8  9  10  11  12  13  24  27  28  29  30  32 0
 6-311+G(2d,p)
 ****
 34  35 0
 6-311+G(2d,p)
 ****
 1  2  14  15  16  17  18  19  20  21  22  23  25  26 0
 3-21G
 ****
 31  33  36  37  38  39  40  41  42  43  44  45  46 0
 3-21G
 ****


