%nproc=1
%NoSave
%Mem=1900MB
#P OB98/GEN NMR

erre ene a

0 1
  C      172.596     157.556    -260.668
  O      172.052     157.830    -259.392
  P      170.470     157.773    -259.168
  C      170.396     158.520    -256.711
  O      170.091     158.865    -258.059
  C      170.438     159.773    -255.840
  O      171.609     160.559    -256.144
  C      169.253     160.710    -256.043
  O      168.099     160.210    -255.396
  C      169.801     162.008    -255.461
  O      169.680     162.011    -254.029
  C      171.278     161.940    -255.874
  N      172.702     166.580    -257.441
  C      172.336     166.112    -256.229
  N      171.931     164.867    -255.899
  C      171.903     164.079    -256.984
  C      172.213     164.423    -258.291
  C      172.655     165.740    -258.503
  N      173.090     166.212    -259.722
  N      172.028     163.342    -259.132
  C      171.607     162.370    -258.350
  N      171.579     162.750    -257.037
  O      169.906     156.411    -258.933
  O      169.873     158.406    -260.513
  H      170.204     162.764    -253.695
  H      169.313     157.744    -260.961
  H      172.384     166.830    -255.414
  H      171.330     161.378    -258.681
  H      171.942     162.273    -255.067
  H      169.274     162.891    -255.834
  H      169.067     160.848    -257.114
  H      170.506     159.458    -254.790
  H      171.372     158.025    -256.695
  H      173.520     167.124    -259.732
  H      173.348     165.535    -260.436
  H      169.642     157.823    -256.335
  P      166.661     160.402    -256.073
  C      165.467     160.550    -253.810
  O      165.755     161.209    -255.028
  O      166.041     159.165    -256.634
  O      166.929     161.486    -257.222
  H      166.329     161.319    -257.973
  H      164.676     159.811    -253.970
  H      165.120     161.290    -253.083
  H      166.357     160.053    -253.414
  H      173.662     157.641    -260.627
  H      172.209     158.256    -261.379
  H      172.329     156.563    -260.964

 3  4  5  6  7  8  9  10  11  12  22  25  29  30  31  32 0
 6-311+G(2d,p)
 ****
 33  36  37 0
 6-311+G(2d,p)
 ****
 1  2  13  14  15  16  17  18  19  20  21  23  24  26 0
 3-21G
 ****
 27  28  34  35  38  39  40  41  42  43  44  45  46  47  48 0
 3-21G
 ****


