%nproc=1
%NoSave
%Mem=1900MB
#P OB98/GEN NMR

erre ene a

0 1
  C       38.428     122.732     -20.322
  O       38.509     121.917     -21.475
  H       38.846     123.714     -20.559
  H       39.003     122.292     -19.503
  H       37.384     122.854     -20.024
  P       37.995     120.406     -21.322
  C       40.241     119.541     -20.398
  O       38.871     119.805     -20.116
  C       40.768     118.434     -19.485
  O       42.186     118.257     -19.745
  C       40.609     118.742     -17.992
  O       40.323     117.531     -17.292
  C       41.989     119.236     -17.592
  O       42.233     119.092     -16.197
  C       42.880     118.383     -18.493
  N       47.667     118.469     -16.762
  C       46.626     117.649     -16.504
  N       45.385     117.684     -17.031
  C       45.290     118.660     -17.954
  C       46.261     119.572     -18.324
  C       47.503     119.457     -17.673
  N       48.557     120.308     -17.903
  N       45.763     120.447     -19.269
  C       44.517     120.063     -19.474
  N       44.181     118.998     -18.684
  O       37.996     119.594     -22.574
  O       36.563     120.610     -20.638
  H       43.143     119.405     -16.007
  H       36.608     121.243     -19.897
  H       46.811     116.868     -15.771
  H       43.820     120.529     -20.163
  H       43.052     117.378     -18.086
  H       42.091     120.298     -17.842
  H       39.834     119.481     -17.787
  H       40.276     117.491     -19.751
  H       40.836     120.449     -20.253
  H       49.413     120.152     -17.394
  H       48.460     121.048     -18.583
  H       40.317     119.238     -21.448
  P       38.948     117.408     -16.477
  C       39.950     117.679     -14.119
  O       39.088     118.231     -15.104
  O       38.404     116.028     -16.332
  O       37.949     118.332     -17.328
  H       37.082     117.887     -17.393
  H       39.959     118.313     -13.257
  H       40.941     117.601     -14.515
  H       39.599     116.707     -13.842

 6  7  8  9  10  11  12  13  14  15  25  28  32  33  34  35 0
 6-311+G(2d,p)
 ****
 36  39  40 0
 6-311+G(2d,p)
 ****
 1  2  3  4  5  16  17  18  19  20  21  22  23  24 0
 3-21G
 ****
 26  27  29  30  31  37  38  41  42  43  44  45  46  47 0
 3-21G
 ****
 48 0
 3-21G
 ****


