%nproc=1
%NoSave
%Mem=1900MB
#P OB98/GEN NMR

erre ene a

0 1
  C     -454.993    -386.050     343.667
  O     -454.393    -386.054     342.389
  H     -455.922    -385.476     343.612
  H     -454.324    -385.568     344.386
  H     -455.228    -387.064     344.004
  P     -453.280    -387.161     342.066
  C     -451.253    -386.012     343.173
  O     -451.867    -386.413     341.951
  C     -449.870    -385.395     342.939
  O     -448.973    -386.382     342.385
  C     -449.909    -384.243     341.930
  O     -450.260    -382.980     342.468
  C     -448.473    -384.237     341.410
  O     -447.622    -383.466     342.276
  C     -448.086    -385.719     341.464
  N     -445.604    -387.010     337.183
  C     -445.156    -386.264     338.260
  N     -443.912    -385.748     338.152
  N     -445.874    -386.032     339.328
  C     -447.133    -386.532     339.249
  C     -447.696    -387.271     338.238
  C     -446.873    -387.569     337.082
  O     -447.222    -388.223     336.105
  N     -448.998    -387.604     338.521
  C     -449.245    -387.002     339.666
  N     -448.135    -386.359     340.160
  O     -453.585    -387.563     340.540
  O     -453.301    -388.368     342.954
  H     -447.854    -383.675     343.199
  H     -453.277    -388.470     340.370
  H     -444.998    -387.183     336.403
  H     -450.200    -387.024     340.185
  H     -447.067    -385.856     341.851
  H     -448.404    -383.795     340.415
  H     -443.365    -385.800     337.303
  H     -450.572    -384.491     341.095
  H     -443.656    -384.989     338.782
  H     -449.449    -385.080     343.900
  H     -451.161    -386.905     343.786
  H     -451.896    -385.310     343.706
  P     -451.556    -382.212     341.911
  C     -450.418    -380.979     339.922
  O     -451.025    -380.878     341.190
  O     -452.240    -381.669     343.253
  O     -452.485    -383.043     341.104
  H     -452.950    -382.279     343.536
  H     -450.125    -380.006     339.588
  H     -451.113    -381.400     339.226
  H     -449.555    -381.608     339.989

 6  7  8  9  10  11  12  13  14  15  26  29  33  34 0
 6-311+G(2d,p)
 ****
 36  38  39  40  41 0
 6-311+G(2d,p)
 ****
 1  2  3  4  5  16  17  18  19  20  21  22  23  24  25 0
 3-21G
 ****
 27  28  30  31  32  35  37  42  43  44  45  46  47 0
 3-21G
 ****
 48  49 0
 3-21G
 ****


