%nproc=1
%NoSave
%Mem=1900MB
#P OB98/GEN NMR

erre ene a

0 1
  C      -73.261     356.395     202.506
  O      -73.213     357.399     203.500
  H      -72.332     356.396     201.924
  H      -73.372     355.420     202.991
  H      -74.119     356.559     201.842
  P      -73.035     358.910     202.980
  C      -75.326     359.987     202.419
  O      -74.357     359.711     203.424
  C      -76.735     359.807     202.980
  O      -76.946     358.386     203.225
  C      -76.986     360.565     204.297
  O      -78.199     361.332     204.215
  C      -77.178     359.466     205.331
  O      -78.127     359.811     206.337
  C      -77.647     358.290     204.480
  N      -79.579     353.686     205.533
  C      -79.908     354.598     204.589
  N      -79.288     355.762     204.298
  C      -78.207     355.933     205.079
  C      -77.738     355.080     206.067
  C      -78.487     353.918     206.297
  N      -78.185     353.011     207.296
  N      -76.599     355.602     206.666
  C      -76.412     356.766     206.077
  N      -77.365     357.021     205.123
  O      -73.194     358.769     201.390
  O      -71.736     359.543     203.349
  H      -78.984     359.946     205.894
  H      -72.365     359.062     200.966
  H      -80.786     354.365     203.990
  H      -75.640     357.486     206.330
  H      -78.723     358.336     204.266
  H      -76.216     359.258     205.810
  H      -76.162     361.232     204.568
  H      -77.458     360.115     202.217
  H      -75.186     359.298     201.577
  H      -78.840     352.271     207.469
  H      -77.439     353.238     207.943
  H      -75.186     361.013     202.059
  P      -78.225     362.717     205.044
  C      -76.790     363.785     203.156
  O      -77.919     363.913     204.021
  O      -76.907     362.620     205.947
  O      -79.448     362.885     205.881
  H      -77.139     362.714     206.893
  H      -76.715     364.654     202.536
  H      -76.908     362.918     202.541
  H      -75.900     363.687     203.743

 6  7  8  9  10  11  12  13  14  15  25  28  32  33  34  35 0
 6-311+G(2d,p)
 ****
 36  39  40 0
 6-311+G(2d,p)
 ****
 1  2  3  4  5  16  17  18  19  20  21  22  23  24 0
 3-21G
 ****
 26  27  29  30  31  37  38  41  42  43  44  45  46  47  48 0
 3-21G
 ****


