%nproc=1
%NoSave
%Mem=1900MB
#P OB98/GEN NMR

erre ene a

0 1
  C     1211.363      87.295     251.153
  O     1211.783      87.781     252.416
  P     1213.082      87.098     253.090
  C     1211.822      86.548     255.304
  O     1212.893      87.261     254.664
  C     1211.948      86.597     256.813
  O     1213.185      85.984     257.235
  C     1212.001      88.022     257.383
  O     1210.681      88.578     257.513
  C     1212.600      87.751     258.749
  O     1211.595      87.260     259.668
  C     1213.639      86.658     258.435
  N     1218.433      86.643     260.202
  C     1217.312      86.102     260.669
  N     1216.059      86.134     260.156
  C     1216.052      86.900     259.040
  C     1217.105      87.562     258.440
  C     1218.373      87.404     259.071
  N     1219.534      87.957     258.562
  N     1216.708      88.234     257.326
  C     1215.418      87.987     257.205
  N     1214.983      87.166     258.216
  O     1214.251      88.140     252.734
  O     1213.390      85.719     252.597
  H     1211.266      86.416     259.310
  H     1215.119      87.695     252.762
  H     1217.411      85.520     261.589
  H     1214.776      88.360     256.424
  H     1213.702      85.903     259.222
  H     1213.022      88.653     259.218
  H     1212.652      88.652     256.799
  H     1211.122      86.032     257.248
  H     1211.858      85.499     254.980
  H     1220.405      87.640     258.955
  H     1219.508      88.346     257.626
  H     1210.870      86.982     254.961
  P     1210.505      90.116     257.031
  C     1209.732      90.755     259.445
  O     1209.443      90.734     258.051
  O     1209.692      89.943     255.677
  O     1211.785      90.839     256.877
  H     1209.859      90.719     255.102
  H     1209.077      91.479     259.931
  H     1210.794      91.053     259.616
  H     1209.591      89.765     259.874
  H     1210.498      87.837     250.832
  H     1211.124      86.255     251.233
  H     1212.150      87.426     250.440

 3  4  5  6  7  8  9  10  11  12  22  25  29  30  31  32 0
 6-311+G(2d,p)
 ****
 33  36  37 0
 6-311+G(2d,p)
 ****
 1  2  13  14  15  16  17  18  19  20  21  23  24  26 0
 3-21G
 ****
 27  28  34  35  38  39  40  41  42  43  44  45  46  47  48 0
 3-21G
 ****


