%nproc=1
%NoSave
%Mem=1900MB
#P OB98/GEN NMR

erre ene a

0 1
  C       56.274    -388.045      73.511
  O       55.160    -387.266      73.060
  P       55.310    -386.131      71.933
  C       53.593    -387.048      70.244
  O       53.916    -385.996      71.151
  C       52.125    -386.994      69.814
  O       51.256    -387.354      70.905
  C       51.657    -385.620      69.341
  O       52.087    -385.374      68.017
  C       50.144    -385.746      69.514
  O       49.565    -386.448      68.401
  C       50.041    -386.590      70.791
  N       46.668    -383.747      73.378
  C       46.566    -384.445      72.224
  N       47.510    -385.175      71.600
  C       48.661    -385.161      72.297
  C       48.916    -384.493      73.483
  C       47.854    -383.753      74.031
  N       47.965    -383.029      75.196
  N       50.217    -384.691      73.887
  C       50.736    -385.485      72.967
  N       49.834    -385.796      71.987
  O       56.497    -386.307      71.044
  O       55.413    -384.759      72.748
  H       49.782    -385.944      67.593
  H       55.928    -384.108      72.235
  H       45.592    -384.411      71.743
  H       51.751    -385.860      72.973
  H       49.219    -387.314      70.731
  H       49.644    -384.775      69.585
  H       52.032    -384.841      70.012
  H       51.978    -387.740      69.022
  H       53.794    -388.005      70.739
  H       47.165    -382.498      75.506
  H       48.859    -382.990      75.666
  H       54.241    -386.964      69.365
  P       53.370    -384.459      67.742
  C       53.621    -385.763      65.549
  O       53.647    -384.492      66.164
  O       54.560    -384.746      68.602
  O       52.834    -382.968      67.977
  H       53.564    -382.408      68.293
  H       54.573    -386.272      65.725
  H       53.487    -385.628      64.471
  H       52.802    -386.369      65.938
  H       55.946    -388.736      74.260
  H       57.018    -387.397      73.925
  H       56.690    -388.584      72.686

 3  4  5  6  7  8  9  10  11  12  22  25  29  30  31  32 0
 6-311+G(2d,p)
 ****
 33  36  37 0
 6-311+G(2d,p)
 ****
 1  2  13  14  15  16  17  18  19  20  21  23  24  26 0
 3-21G
 ****
 27  28  34  35  38  39  40  41  42  43  44  45  46  47  48 0
 3-21G
 ****


