%nproc=1
%NoSave
%Mem=1900MB
#P OB98/GEN NMR

erre ene a

0 1
  C     -134.635     180.870      51.281
  O     -135.935     181.193      51.736
  P     -137.226     180.455      51.144
  C     -137.497     182.425      49.527
  O     -138.152     181.559      50.443
  C     -138.502     183.236      48.708
  O     -137.787     184.136      47.824
  C     -139.444     182.380      47.846
  O     -140.731     183.008      47.877
  C     -138.832     182.485      46.463
  O     -139.769     182.205      45.433
  C     -138.300     183.922      46.493
  N     -137.281     184.161      45.484
  C     -137.689     184.125      44.149
  O     -138.836     183.774      43.862
  N     -136.786     184.477      43.176
  C     -135.540     184.655      43.497
  N     -134.692     185.067      42.516
  C     -135.026     184.452      44.866
  C     -135.944     184.252      45.808
  O     -137.941     179.565      52.107
  O     -136.664     179.613      49.901
  H     -136.937     178.680      49.996
  H     -139.283     181.926      44.628
  H     -133.963     184.488      45.060
  H     -135.671     184.119      46.848
  H     -139.119     184.639      46.342
  H     -138.003     181.771      46.373
  H     -139.533     181.352      48.209
  H     -139.085     183.854      49.402
  H     -135.087     185.235      41.599
  H     -136.898     181.811      48.848
  H     -133.807     185.529      42.723
  H     -136.814     183.090      50.067
  P     -141.948     182.219      48.571
  C     -142.554     180.663      46.581
  O     -142.946     181.737      47.413
  O     -142.772     183.425      49.242
  O     -141.583     181.212      49.614
  H     -143.282     183.078      49.997
  H     -143.319     180.519      45.817
  H     -142.465     179.743      47.166
  H     -141.602     180.883      46.090
  H     -133.917     181.471      51.798
  H     -134.568     181.059      50.230
  H     -134.437     179.836      51.471

 3  4  5  6  7  8  9  10  11  12  13  24  27  28  29  30  32 0
 6-311+G(2d,p)
 ****
 34  35 0
 6-311+G(2d,p)
 ****
 1  2  14  15  16  17  18  19  20  21  22  23  25  26 0
 3-21G
 ****
 31  33  36  37  38  39  40  41  42  43  44  45  46 0
 3-21G
 ****


