%nproc=1
%NoSave
%Mem=1900MB
#P OB98/GEN NMR

erre ene a

0 1
  C     -571.000    1106.825    -711.815
  O     -570.700    1105.957    -710.742
  H     -570.236    1107.610    -711.849
  H     -571.975    1107.290    -711.659
  H     -570.990    1106.282    -712.768
  P     -571.575    1104.613    -710.639
  C     -569.644    1103.768    -709.113
  O     -571.059    1103.832    -709.331
  C     -569.369    1103.546    -707.624
  O     -569.833    1104.684    -706.854
  C     -570.039    1102.311    -707.024
  O     -569.289    1101.136    -707.286
  C     -570.009    1102.663    -705.561
  O     -568.685    1102.451    -705.028
  C     -570.329    1104.161    -705.576
  N     -573.986    1105.939    -702.540
  C     -572.631    1105.746    -702.280
  N     -572.199    1106.087    -701.057
  N     -571.788    1105.294    -703.177
  C     -572.373    1104.999    -704.356
  C     -573.699    1105.115    -704.719
  C     -574.613    1105.655    -703.728
  O     -575.826    1105.842    -703.904
  N     -573.913    1104.731    -706.007
  C     -572.724    1104.334    -706.441
  N     -571.751    1104.471    -705.467
  O     -571.032    1103.723    -711.845
  O     -573.057    1104.804    -710.728
  H     -568.505    1101.501    -705.078
  H     -571.771    1103.201    -712.228
  H     -574.592    1106.296    -701.812
  H     -572.510    1103.958    -707.426
  H     -569.830    1104.721    -704.776
  H     -570.701    1102.054    -704.956
  H     -572.806    1106.404    -700.316
  H     -571.076    1102.219    -707.370
  H     -571.204    1106.002    -700.874
  H     -568.276    1103.492    -707.495
  H     -569.201    1104.709    -709.427
  H     -569.234    1102.944    -709.697
  P     -570.087    1099.852    -707.832
  C     -567.847    1099.099    -708.920
  O     -568.971    1098.743    -708.129
  O     -570.534    1100.317    -709.301
  O     -571.238    1099.431    -707.019
  H     -571.305    1099.797    -709.600
  H     -567.201    1098.252    -709.023
  H     -567.315    1099.897    -708.446
  H     -568.177    1099.416    -709.887

 6  7  8  9  10  11  12  13  14  15  26  29  33  34 0
 6-311+G(2d,p)
 ****
 36  38  39  40  41 0
 6-311+G(2d,p)
 ****
 1  2  3  4  5  16  17  18  19  20  21  22  23  24  25 0
 3-21G
 ****
 27  28  30  31  32  35  37  42  43  44  45  46  47 0
 3-21G
 ****
 48  49 0
 3-21G
 ****


