%nproc=1
%NoSave
%Mem=1900MB
#P OB98/GEN NMR

erre ene a

0 1
  C     1165.349     750.562    -342.094
  O     1165.896     750.423    -343.393
  P     1166.091     748.913    -343.953
  C     1165.768     749.940    -346.321
  O     1166.520     749.064    -345.483
  C     1166.428     750.057    -347.703
  O     1167.718     750.698    -347.572
  C     1166.678     748.713    -348.422
  O     1166.526     748.945    -349.829
  C     1168.124     748.397    -348.091
  O     1168.701     747.476    -349.003
  C     1168.711     749.799    -348.112
  N     1173.098     752.232    -347.465
  C     1172.158     752.413    -348.441
  N     1172.370     753.380    -349.327
  N     1171.072     751.666    -348.536
  C     1170.983     750.727    -347.547
  C     1171.891     750.459    -346.555
  C     1173.040     751.296    -346.435
  O     1173.893     751.247    -345.547
  N     1171.473     749.353    -345.798
  C     1170.302     749.043    -346.303
  N     1169.942     749.867    -347.334
  O     1164.595     748.365    -344.017
  O     1167.031     748.053    -343.148
  H     1169.588     747.246    -348.677
  H     1164.376     747.875    -343.190
  H     1173.909     752.839    -347.417
  H     1169.672     748.237    -345.950
  H     1168.956     750.133    -349.139
  H     1168.178     747.968    -347.090
  H     1173.155     754.006    -349.315
  H     1165.976     747.933    -348.094
  H     1171.673     753.532    -350.067
  H     1165.800     750.704    -348.326
  H     1165.751     750.946    -345.879
  H     1164.724     749.588    -346.410
  P     1165.664     747.919    -350.687
  C     1164.747     749.613    -352.395
  O     1165.549     748.472    -352.174
  O     1164.187     748.091    -350.105
  O     1166.104     746.481    -350.559
  H     1163.714     747.240    -350.150
  H     1165.070     750.120    -353.319
  H     1164.803     750.325    -351.586
  H     1163.704     749.290    -352.511
  H     1165.274     751.601    -341.848
  H     1165.984     750.073    -341.385
  H     1164.376     750.118    -342.067

 3  4  5  6  7  8  9  10  11  12  23  26  30  31 0
 6-311+G(2d,p)
 ****
 33  35  36  37  38 0
 6-311+G(2d,p)
 ****
 1  2  13  14  15  16  17  18  19  20  21  22  24  25 0
 3-21G
 ****
 27  28  29  32  34  39  40  41  42  43  44  45  46  47  48  49 0
 3-21G
 ****


