%nproc=1
%NoSave
%Mem=1900MB
#P OB98/GEN NMR

erre ene a

0 1
  C     -190.756       1.844     141.059
  O     -191.135       3.102     140.525
  P     -192.701       3.389     140.327
  C     -192.562       3.286     137.698
  O     -193.085       2.751     138.907
  C     -193.024       2.444     136.508
  O     -192.622       1.070     136.694
  C     -194.532       2.404     136.306
  O     -195.018       3.596     135.711
  C     -194.682       1.152     135.446
  O     -194.381       1.458     134.072
  C     -193.600       0.230     136.038
  N     -194.135      -0.771     136.955
  C     -194.704      -1.900     136.369
  O     -194.764      -2.071     135.151
  N     -195.222      -2.825     137.236
  C     -195.286      -2.707     138.595
  O     -195.803      -3.547     139.320
  C     -194.699      -1.481     139.154
  C     -194.161      -0.584     138.323
  O     -192.680       4.970     140.072
  O     -193.532       2.945     141.485
  H     -191.833       5.262     139.688
  H     -194.467       0.617     133.580
  H     -195.620      -3.662     136.837
  H     -194.739      -1.345     140.227
  H     -193.732       0.329     138.715
  H     -193.063      -0.289     135.232
  H     -195.696       0.740     135.476
  H     -195.032       2.247     137.272
  H     -192.526       2.825     135.605
  H     -191.472       3.281     137.751
  H     -192.902       4.323     137.594
  P     -196.471       4.098     136.191
  C     -197.902       3.637     134.054
  O     -197.540       3.245     135.361
  O     -196.526       5.557     135.530
  O     -196.649       4.085     137.675
  H     -196.178       5.574     134.619
  H     -198.334       2.774     133.536
  H     -197.034       3.987     133.489
  H     -198.652       4.431     134.103
  H     -189.690       1.795     141.134
  H     -191.105       1.064     140.415
  H     -191.188       1.724     142.031

 3  4  5  6  7  8  9  10  11  12  13  24  28  29  30  31  32 0
 6-311+G(2d,p)
 ****
 33  34 0
 6-311+G(2d,p)
 ****
 1  2  14  15  16  17  18  19  20  21  22  23  25  26  27 0
 3-21G
 ****
 35  36  37  38  39  40  41  42  43  44  45 0
 3-21G
 ****


