%nproc=1
%NoSave
%Mem=1900MB
#P OB98/GEN NMR

erre ene a

0 1
  C       84.781    -647.891     133.065
  O       84.058    -646.757     133.549
  P       82.480    -646.663     133.291
  C       82.506    -645.387     131.057
  O       82.201    -646.608     131.711
  C       81.306    -644.888     130.226
  O       80.225    -644.492     131.124
  C       81.652    -643.680     129.338
  O       81.241    -643.856     127.965
  C       81.012    -642.509     130.069
  O       80.735    -641.408     129.210
  C       79.807    -643.154     130.776
  N       79.371    -642.387     131.941
  C       78.093    -641.855     131.885
  O       77.358    -641.940     130.908
  N       77.696    -641.157     133.000
  C       78.462    -640.880     134.091
  O       78.066    -640.213     135.042
  C       79.833    -641.406     134.064
  C       80.223    -642.129     133.000
  O       81.755    -645.636     134.095
  O       81.974    -648.136     133.679
  H       80.145    -641.728     128.471
  H       81.102    -648.057     134.136
  H       76.750    -640.789     132.986
  H       80.475    -641.188     134.891
  H       81.225    -642.516     132.940
  H       78.958    -643.234     130.091
  H       81.709    -642.154     130.827
  H       82.735    -643.516     129.275
  H       80.960    -645.729     129.622
  H       83.364    -645.523     130.386
  H       82.813    -644.628     131.796
  P       82.210    -644.387     126.810
  C       83.315    -642.169     126.067
  O       83.478    -643.418     126.710
  O       81.548    -644.687     125.507
  O       82.812    -645.737     127.440
  H       82.876    -646.428     126.743
  H       84.305    -641.811     125.756
  H       82.879    -641.446     126.772
  H       82.678    -642.248     125.175
  H       85.815    -647.792     133.323
  H       84.683    -647.949     132.001
  H       84.387    -648.781     133.509

 3  4  5  6  7  8  9  10  11  12  13  23  28  29  30  31  32 0
 6-311+G(2d,p)
 ****
 33  34 0
 6-311+G(2d,p)
 ****
 1  2  14  15  16  17  18  19  20  21  22  24  25  26  27 0
 3-21G
 ****
 35  36  37  38  39  40  41  42  43  44  45 0
 3-21G
 ****


