%nproc=1
%NoSave
%Mem=1900MB
#P OB98/GEN NMR

erre ene a

0 1
  C     1392.995    -193.097    -294.110
  O     1394.066    -193.203    -293.180
  P     1394.005    -194.419    -292.119
  C     1395.967    -193.461    -290.713
  O     1394.599    -193.803    -290.750
  C     1396.233    -192.382    -289.641
  O     1395.607    -191.157    -290.033
  C     1395.671    -192.731    -288.270
  O     1396.505    -193.615    -287.547
  C     1395.622    -191.341    -287.627
  O     1396.931    -191.023    -287.094
  C     1395.270    -190.431    -288.809
  N     1391.970    -186.593    -288.555
  C     1393.347    -186.581    -288.458
  N     1393.938    -185.378    -288.328
  N     1394.098    -187.675    -288.527
  C     1393.378    -188.793    -288.709
  C     1391.995    -188.943    -288.813
  C     1391.191    -187.730    -288.695
  O     1389.968    -187.689    -288.696
  N     1391.654    -190.248    -289.004
  C     1392.794    -190.896    -289.070
  N     1393.873    -190.053    -288.866
  O     1395.176    -195.395    -292.620
  O     1392.694    -195.116    -292.039
  H     1396.847    -190.169    -286.629
  H     1394.993    -196.303    -292.323
  H     1391.445    -185.732    -288.518
  H     1392.894    -191.948    -289.268
  H     1395.882    -189.525    -288.802
  H     1394.933    -191.289    -286.797
  H     1393.435    -184.504    -288.412
  H     1394.641    -193.114    -288.350
  H     1394.950    -185.331    -288.304
  H     1397.312    -192.214    -289.575
  H     1396.283    -193.050    -291.681
  H     1396.555    -194.352    -290.505
  P     1395.984    -195.123    -287.368
  C     1397.919    -195.733    -285.744
  O     1396.536    -195.575    -285.926
  O     1396.881    -195.942    -288.405
  O     1394.521    -195.295    -287.602
  H     1396.405    -196.769    -288.678
  H     1398.483    -194.987    -286.316
  H     1398.212    -196.738    -286.076
  H     1398.152    -195.619    -284.674
  H     1393.160    -192.255    -294.749
  H     1392.074    -192.968    -293.580
  H     1392.945    -193.988    -294.700

 3  4  5  6  7  8  9  10  11  12  23  26  30  31  33  0
 6-311+G(2d,p)
 ****
 35  36  37  38 0
 6-311+G(2d,p)
 ****
 1  2  13  14  15  16  17  18  19  20  21  22  24  25  27  28  29 0
 3-21G
 ****
 32  34  39  40  41  42  43  44  45  46  47  48  49 0
 3-21G
 ****


