%nproc=1
%NoSave
%Mem=1900MB
#P OB98/GEN NMR

erre ene a

0 1
  C     -259.097     -45.927     515.500
  O     -259.655     -45.129     516.524
  H     -258.688     -45.277     514.729
  H     -259.881     -46.547     515.055
  H     -258.298     -46.561     515.893
  P     -260.038     -45.862     517.900
  C     -262.369     -46.708     517.123
  O     -261.049     -47.059     517.528
  C     -262.885     -47.705     516.084
  O     -263.058     -49.001     516.723
  C     -264.230     -47.310     515.461
  O     -264.217     -47.652     514.072
  C     -265.233     -48.184     516.198
  O     -266.423     -48.413     515.437
  C     -264.406     -49.430     516.456
  N     -267.884     -52.837     517.798
  C     -267.555     -52.333     516.547
  N     -268.267     -52.808     515.498
  N     -266.612     -51.456     516.346
  C     -265.970     -51.095     517.482
  C     -266.192     -51.508     518.769
  C     -267.262     -52.467     518.983
  O     -267.616     -52.929     520.068
  N     -265.346     -50.887     519.654
  C     -264.599     -50.102     518.899
  N     -264.932     -50.198     517.569
  O     -260.976     -44.791     518.632
  O     -258.883     -46.253     518.759
  H     -266.170     -48.956     514.659
  H     -260.543     -44.484     519.453
  H     -268.633     -53.507     517.889
  H     -263.820     -49.451     519.262
  H     -264.384     -50.107     515.586
  H     -265.517     -47.703     517.141
  H     -268.966     -53.529     515.569
  H     -264.457     -46.247     515.570
  H     -268.015     -52.485     514.569
  H     -262.121     -47.833     515.309
  H     -262.351     -45.703     516.689
  H     -263.028     -46.710     517.999
  P     -263.353     -46.714     513.099
  C     -264.969     -44.702     512.798
  O     -263.761     -45.178     513.381
  O     -263.983     -47.005     511.653
  O     -261.882     -47.000     513.129
  H     -263.353     -47.541     511.122
  H     -265.114     -43.676     513.065
  H     -265.792     -45.284     513.157
  H     -264.909     -44.788     511.733

 6  7  8  9  10  11  12  13  14  15  26  29  33  34 0
 6-311+G(2d,p)
 ****
 36  38  39  40  41 0
 6-311+G(2d,p)
 ****
 1  2  3  4  5  16  17  18  19  20  21  22  23  24  25 0
 3-21G
 ****
 27  28  30  31  32  35  37  42  43  44  45  46  47 0
 3-21G
 ****
 48  49 0
 3-21G
 ****


