%nproc=1
%NoSave
%Mem=1900MB
#P OB98/GEN NMR

erre ene a

0 1
  C      169.938      81.167    -174.571
  O      170.347      80.071    -175.364
  H      169.088      80.855    -173.957
  H      169.624      81.998    -175.209
  H      170.746      81.491    -173.908
  P      171.648      80.225    -176.291
  C      170.597      81.717    -178.105
  O      171.524      81.648    -177.028
  C      170.784      83.016    -178.891
  O      170.152      84.096    -178.157
  C      172.253      83.396    -179.118
  O      172.382      83.969    -180.418
  C      172.508      84.460    -178.062
  O      173.555      85.357    -178.441
  C      171.136      85.130    -177.959
  N      172.170      89.279    -175.261
  C      172.443      88.983    -176.582
  N      173.117      89.922    -177.292
  N      172.093      87.865    -177.161
  C      171.417      87.025    -176.343
  C      171.090      87.195    -175.018
  C      171.493      88.437    -174.380
  O      171.292      88.748    -173.211
  N      170.421      86.103    -174.524
  C      170.354      85.270    -175.543
  N      170.950      85.774    -176.667
  O      171.926      79.075    -177.207
  O      172.839      80.455    -175.248
  H      173.653      86.008    -177.714
  H      173.339      79.630    -175.109
  H      172.475      90.151    -174.864
  H      169.890      84.286    -175.520
  H      170.992      85.904    -178.727
  H      172.788      83.985    -177.117
  H      173.400      90.813    -176.915
  H      172.933      82.542    -179.014
  H      173.303      89.737    -178.265
  H      170.253      82.925    -179.843
  H      169.585      81.677    -177.690
  H      170.745      80.854    -178.766
  P      173.169      83.147    -181.550
  C      175.274      84.630    -181.710
  O      174.745      83.365    -181.326
  O      172.690      83.354    -182.948
  O      172.954      81.621    -181.084
  H      172.956      81.050    -181.880
  H      176.325      84.652    -181.513
  H      174.790      85.403    -181.151
  H      175.104      84.785    -182.755

 6  7  8  9  10  11  12  13  14  15  26  29  33  34 0
 6-311+G(2d,p)
 ****
 36  38  39  40  41 0
 6-311+G(2d,p)
 ****
 1  2  3  4  5  16  17  18  19  20  21  22  23  24  25 0
 3-21G
 ****
 27  28  30  31  32  35  37  42  43  44  45  46  47 0
 3-21G
 ****
 48  49 0
 3-21G
 ****


