%nproc=1
%NoSave
%Mem=1900MB
#P OB98/GEN NMR

erre ene a

0 1
  C      -68.571    1767.302    -684.806
  O      -69.564    1767.139    -685.794
  H      -68.839    1766.695    -683.940
  H      -68.517    1768.339    -684.505
  H      -67.598    1766.964    -685.181
  P      -69.348    1767.805    -687.241
  C      -68.512    1765.481    -688.014
  O      -68.290    1766.886    -688.039
  C      -67.304    1764.737    -688.612
  O      -67.132    1765.141    -689.987
  C      -65.980    1765.025    -687.860
  O      -65.217    1763.830    -687.810
  C      -65.302    1766.050    -688.745
  O      -63.895    1766.024    -688.606
  C      -65.791    1765.642    -690.131
  N      -62.740    1768.835    -692.610
  C      -62.441    1767.745    -691.810
  N      -61.128    1767.491    -691.615
  N      -63.334    1766.997    -691.232
  C      -64.612    1767.369    -691.525
  C      -65.033    1768.413    -692.295
  C      -64.039    1769.254    -692.905
  O      -64.258    1770.237    -693.617
  N      -66.422    1768.456    -692.348
  C      -66.800    1767.457    -691.580
  N      -65.757    1766.763    -691.068
  O      -69.017    1769.259    -687.223
  O      -70.709    1767.530    -688.017
  H      -63.678    1766.282    -687.681
  H      -71.252    1768.343    -688.085
  H      -62.023    1769.384    -693.015
  H      -67.837    1767.183    -691.387
  H      -65.182    1764.853    -690.577
  H      -65.655    1767.057    -688.505
  H      -60.385    1768.013    -692.057
  H      -66.154    1765.391    -686.847
  H      -60.863    1766.685    -691.061
  H      -67.516    1763.653    -688.599
  H      -69.405    1765.281    -688.615
  H      -68.697    1765.157    -686.994
  P      -65.809    1762.540    -687.037
  C      -66.642    1761.066    -688.965
  O      -67.003    1761.931    -687.897
  O      -66.091    1762.772    -685.584
  O      -64.635    1761.450    -687.228
  H      -64.596    1760.896    -686.432
  H      -67.526    1760.725    -689.462
  H      -66.104    1760.226    -688.577
  H      -66.024    1761.596    -689.659

 6  7  8  9  10  11  12  13  14  15  26  29  33  34 0
 6-311+G(2d,p)
 ****
 36  38  39  40  41 0
 6-311+G(2d,p)
 ****
 1  2  3  4  5  16  17  18  19  20  21  22  23  24  25 0
 3-21G
 ****
 27  28  30  31  32  35  37  42  43  44  45  46  47 0
 3-21G
 ****
 48  49 0
 3-21G
 ****


