%nproc=1
%NoSave
%Mem=1900MB
#P OB98/GEN NMR

erre ene a

0 1
  C     -861.080    -120.431    -412.718
  O     -860.950    -121.448    -413.687
  P     -859.690    -121.466    -414.685
  C     -861.607    -122.026    -416.313
  O     -860.213    -122.128    -416.056
  C     -861.958    -122.766    -417.602
  O     -861.181    -122.266    -418.718
  C     -861.641    -124.257    -417.563
  O     -862.392    -125.059    -416.677
  C     -861.718    -124.608    -419.043
  O     -863.072    -124.800    -419.465
  C     -861.123    -123.338    -419.696
  N     -859.760    -123.556    -420.178
  C     -859.624    -124.441    -421.237
  O     -860.570    -125.026    -421.760
  N     -858.339    -124.671    -421.664
  C     -857.206    -124.146    -421.113
  O     -856.085    -124.428    -421.520
  C     -857.412    -123.225    -419.989
  C     -858.658    -122.976    -419.570
  O     -858.450    -122.077    -414.134
  O     -859.528    -119.927    -415.100
  H     -863.047    -125.246    -420.330
  H     -860.306    -119.535    -415.541
  H     -858.219    -125.326    -422.424
  H     -856.535    -122.780    -419.541
  H     -858.839    -122.296    -418.738
  H     -861.739    -123.019    -420.549
  H     -861.175    -125.534    -419.266
  H     -860.600    -124.381    -417.263
  H     -863.010    -122.581    -417.828
  H     -861.875    -120.975    -416.426
  H     -862.168    -122.428    -415.457
  P     -861.742    -125.804    -415.414
  C     -862.496    -128.263    -415.774
  O     -862.664    -127.061    -415.045
  O     -861.283    -124.942    -414.284
  O     -860.466    -126.518    -416.076
  H     -859.751    -126.571    -415.414
  H     -863.229    -128.989    -415.423
  H     -861.496    -128.667    -415.615
  H     -862.670    -128.083    -416.841
  H     -861.975    -120.588    -412.154
  H     -861.127    -119.479    -413.204
  H     -860.236    -120.454    -412.061

 3  4  5  6  7  8  9  10  11  12  13  23  28  29  30  31  32 0
 6-311+G(2d,p)
 ****
 33  34 0
 6-311+G(2d,p)
 ****
 1  2  14  15  16  17  18  19  20  21  22  24  25  26  27 0
 3-21G
 ****
 35  36  37  38  39  40  41  42  43  44  45 0
 3-21G
 ****


