%nproc=1
%NoSave
%Mem=1900MB
#P OB98/GEN NMR

erre ene a

0 1
  C      -67.237      41.827     454.560
  O      -68.182      42.075     453.534
  H      -67.497      40.885     455.055
  H      -67.256      42.623     455.309
  H      -66.235      41.738     454.137
  P      -68.110      43.478     452.766
  C      -69.867      44.538     454.346
  O      -68.533      44.585     453.842
  C      -70.023      45.512     455.511
  O      -69.256      45.061     456.645
  C      -69.513      46.912     455.195
  O      -70.428      47.612     454.371
  C      -69.331      47.473     456.594
  O      -70.577      47.912     457.145
  C      -68.789      46.239     457.351
  N      -67.337      46.237     457.470
  C      -66.778      47.282     458.213
  O      -67.498      48.131     458.733
  N      -65.409      47.342     458.330
  C      -64.668      46.439     457.771
  N      -63.322      46.558     457.926
  C      -65.219      45.314     456.988
  C      -66.544      45.278     456.877
  O      -68.849      43.573     451.462
  O      -66.538      43.730     452.581
  H      -70.357      48.343     457.993
  H      -66.224      43.340     451.746
  H      -64.557      44.577     456.543
  H      -67.032      44.484     456.316
  H      -69.220      46.191     458.360
  H      -68.650      48.323     456.597
  H      -68.525      46.858     454.718
  H      -71.081      45.535     455.806
  H      -62.991      47.353     458.458
  H      -70.051      43.512     454.683
  H      -62.654      45.870     457.608
  H      -70.588      44.778     453.555
  P      -69.910      48.472     453.121
  C      -70.241      50.636     454.494
  O      -69.324      49.828     453.753
  O      -70.896      48.654     452.015
  O      -68.584      47.687     452.666
  H      -68.803      46.845     452.204
  H      -69.735      51.504     454.861
  H      -70.627      50.073     455.318
  H      -71.047      50.935     453.858

 6  7  8  9  10  11  12  13  14  15  16  26  30  31  32  33  35 0
 6-311+G(2d,p)
 ****
 37  38 0
 6-311+G(2d,p)
 ****
 1  2  3  4  5  17  18  19  20  21  22  23  24  25 0
 3-21G
 ****
 27  28  29  34  36  39  40  41  42  43  44  45  46 0
 3-21G
 ****


