%nproc=1
%NoSave
%Mem=1900MB
#P OB98/GEN NMR

erre ene a

0 1
  C      458.303     -41.926     234.772
  O      459.277     -42.809     235.289
  H      457.654     -42.457     234.072
  H      457.695     -41.547     235.597
  H      458.780     -41.084     234.267
  P      460.262     -43.491     234.219
  C      459.086     -45.754     233.792
  O      460.156     -45.081     234.438
  C      459.603     -47.019     233.109
  O      460.610     -46.628     232.138
  C      460.235     -48.041     234.067
  O      459.684     -49.348     233.849
  C      461.699     -48.060     233.681
  O      462.294     -49.347     233.819
  C      461.666     -47.594     232.230
  N      466.145     -48.616     230.009
  C      464.961     -49.255     229.956
  N      463.782     -48.880     230.491
  C      463.892     -47.693     231.110
  C      465.030     -46.912     231.229
  C      466.207     -47.427     230.659
  N      467.434     -46.801     230.757
  N      464.766     -45.756     231.945
  C      463.499     -45.858     232.288
  N      462.932     -47.019     231.825
  O      461.723     -43.126     234.782
  O      460.083     -43.012     232.819
  H      461.878     -49.930     233.152
  H      462.192     -42.590     234.119
  H      464.958     -50.195     229.421
  H      462.952     -45.154     232.909
  H      461.429     -48.417     231.541
  H      462.247     -47.350     234.316
  H      460.106     -47.765     235.122
  H      458.780     -47.477     232.547
  H      458.641     -45.095     233.038
  H      468.239     -47.299     230.426
  H      467.506     -45.974     231.337
  H      458.321     -46.006     234.531
  P      458.165     -49.572     234.324
  C      458.844     -51.382     236.058
  O      458.042     -51.059     234.927
  O      457.359     -49.649     232.934
  O      457.641     -48.478     235.195
  H      456.651     -48.971     232.926
  H      458.660     -52.395     236.348
  H      458.597     -50.729     236.869
  H      459.878     -51.265     235.807

 6  7  8  9  10  11  12  13  14  15  25  28  32  33  34  35 0
 6-311+G(2d,p)
 ****
 36  39  40 0
 6-311+G(2d,p)
 ****
 1  2  3  4  5  16  17  18  19  20  21  22  23  24 0
 3-21G
 ****
 26  27  29  30  31  37  38  41  42  43  44  45  46  47  48 0
 3-21G
 ****


