%nproc=1
%NoSave
%Mem=1900MB
#P OB98/GEN NMR

erre ene a

0 1
  C      471.850      -5.278     -33.855
  O      473.020      -5.988     -33.499
  H      471.066      -5.998     -34.102
  H      472.027      -4.640     -34.723
  H      471.512      -4.671     -33.011
  P      474.391      -5.164     -33.362
  C      473.881      -4.408     -30.950
  O      474.082      -3.996     -32.299
  C      474.903      -3.760     -30.018
  O      476.244      -4.149     -30.377
  C      474.913      -2.241     -30.064
  O      473.747      -1.624     -29.566
  C      476.257      -1.917     -29.427
  O      476.202      -1.931     -28.002
  C      477.127      -3.095     -29.935
  N      478.051      -2.687     -30.989
  C      479.398      -2.688     -30.651
  O      479.821      -2.986     -29.538
  N      480.259      -2.300     -31.642
  C      479.905      -1.872     -32.886
  O      480.725      -1.514     -33.726
  C      478.461      -1.856     -33.172
  C      477.613      -2.257     -32.227
  O      474.982      -4.670     -34.650
  O      475.352      -6.149     -32.548
  H      475.698      -1.140     -27.730
  H      476.295      -5.861     -32.613
  H      481.245      -2.306     -31.423
  H      478.145      -1.511     -34.146
  H      476.542      -2.257     -32.413
  H      477.718      -3.512     -29.109
  H      476.630      -0.935     -29.729
  H      474.989      -1.931     -31.115
  H      474.715      -4.125     -29.001
  H      473.999      -5.496     -30.912
  H      472.865      -4.150     -30.637
  P      473.382      -0.094     -29.806
  C      471.694      -0.589     -31.739
  O      472.875       0.081     -31.317
  O      474.343       0.917     -29.266
  O      472.007       0.046     -28.971
  H      471.988       0.953     -28.601
  H      471.504      -0.363     -32.767
  H      470.867      -0.263     -31.143
  H      471.823      -1.645     -31.624

 6  7  8  9  10  11  12  13  14  15  16  26  31  32  33  34  35 0
 6-311+G(2d,p)
 ****
 36  37 0
 6-311+G(2d,p)
 ****
 1  2  3  4  5  17  18  19  20  21  22  23  24  25 0
 3-21G
 ****
 27  28  29  30  38  39  40  41  42  43  44  45 0
 3-21G
 ****


