%nproc=1
%NoSave
%Mem=1900MB
#P OB98/GEN NMR

erre ene a

0 1
  C     -113.904     292.856    -113.084
  O     -112.826     291.960    -112.892
  H     -114.395     292.658    -114.042
  H     -114.630     292.706    -112.279
  H     -113.549     293.890    -113.050
  P     -111.629     292.042    -113.960
  C     -112.201     289.890    -115.293
  O     -112.162     291.311    -115.286
  C     -111.036     289.338    -116.112
  O     -110.922     287.914    -115.915
  C     -111.165     289.535    -117.619
  O     -110.800     290.852    -118.012
  C     -110.165     288.506    -118.126
  O     -108.828     289.026    -118.008
  C     -110.369     287.347    -117.134
  N     -111.553     284.377    -121.131
  C     -110.545     285.251    -120.925
  N     -110.283     285.991    -119.826
  C     -111.188     285.743    -118.865
  C     -112.257     284.863    -118.917
  C     -112.434     284.161    -120.120
  N     -113.514     283.318    -120.347
  N     -112.976     284.893    -117.738
  C     -112.358     285.787    -116.991
  N     -111.269     286.324    -117.626
  O     -110.550     291.017    -113.361
  O     -111.048     293.403    -114.158
  H     -108.746     289.382    -117.104
  H     -109.882     291.514    -112.853
  H     -109.857     285.383    -121.756
  H     -112.666     286.080    -115.995
  H     -109.426     286.863    -116.867
  H     -110.320     288.238    -119.177
  H     -112.166     289.270    -117.977
  H     -110.111     289.799    -115.736
  H     -113.143     289.553    -115.737
  H     -113.785     283.256    -121.325
  H     -114.261     283.406    -119.668
  H     -112.143     289.531    -114.263
  P     -111.884     291.720    -118.817
  C     -110.794     290.919    -121.026
  O     -111.997     291.065    -120.282
  O     -111.114     293.098    -119.076
  O     -113.175     291.944    -118.107
  H     -111.637     293.840    -118.716
  H     -111.013     290.474    -121.974
  H     -110.114     290.293    -120.486
  H     -110.350     291.880    -121.178

 6  7  8  9  10  11  12  13  14  15  25  28  32  33  34  35 0
 6-311+G(2d,p)
 ****
 36  39  40 0
 6-311+G(2d,p)
 ****
 1  2  3  4  5  16  17  18  19  20  21  22  23  24 0
 3-21G
 ****
 26  27  29  30  31  37  38  41  42  43  44  45  46  47  48 0
 3-21G
 ****


