%nproc=1
%NoSave
%Mem=1900MB
#P OB98/GEN NMR

erre ene a

0 1
  C      230.285     262.869     352.808
  O      230.117     261.894     351.798
  H      230.053     262.444     353.788
  H      231.328     263.203     352.807
  H      229.636     263.730     352.614
  P      228.657     261.246     351.657
  C      228.117     262.812     349.650
  O      227.761     262.379     350.954
  C      226.945     263.563     349.030
  O      227.294     264.026     347.704
  C      225.695     262.711     348.853
  O      224.930     262.611     350.044
  C      224.957     263.507     347.790
  O      224.342     264.665     348.385
  C      226.110     263.936     346.869
  N      225.067     262.775     341.992
  C      224.699     263.815     342.770
  N      225.038     264.062     344.054
  C      225.851     263.105     344.523
  C      226.314     261.986     343.847
  C      225.885     261.833     342.516
  N      226.233     260.757     341.732
  N      227.116     261.219     344.670
  C      227.143     261.869     345.815
  N      226.368     262.997     345.787
  O      228.101     261.226     353.158
  O      228.598     259.909     350.993
  H      223.477     264.382     348.732
  H      227.315     260.650     353.221
  H      224.044     264.544     342.301
  H      227.698     261.562     346.692
  H      225.946     264.920     346.413
  H      224.163     262.935     347.306
  H      225.936     261.718     348.453
  H      226.737     264.446     349.647
  H      228.360     261.936     349.036
  H      225.757     260.660     340.847
  H      226.717     259.981     342.158
  H      228.995     263.462     349.709
  P      223.528     261.828     349.961
  C      224.893     259.622     349.859
  O      223.846     260.402     349.297
  O      222.751     262.608     348.802
  O      222.759     261.794     351.241
  H      221.787     262.606     348.967
  H      224.987     258.705     349.315
  H      224.668     259.407     350.883
  H      225.813     260.166     349.802

 6  7  8  9  10  11  12  13  14  15  25  28  32  33  34  35 0
 6-311+G(2d,p)
 ****
 36  39  40 0
 6-311+G(2d,p)
 ****
 1  2  3  4  5  16  17  18  19  20  21  22  23  24 0
 3-21G
 ****
 26  27  29  30  31  37  38  41  42  43  44  45  46  47 0
 3-21G
 ****
 48 0
 3-21G
 ****


