%nproc=1
%NoSave
%Mem=1900MB
#P OB98/GEN NMR

erre ene a

0 1
  C       75.008      93.142     -64.648
  O       73.960      92.384     -65.210
  H       74.593      93.788     -63.870
  H       75.463      93.769     -65.420
  H       75.771      92.500     -64.200
  P       74.324      91.065     -66.040
  C       74.794      92.141     -68.337
  O       73.918      91.324     -67.572
  C       74.126      92.655     -69.613
  O       75.021      93.540     -70.323
  C       73.785      91.527     -70.586
  O       72.559      90.864     -70.341
  C       73.749      92.267     -71.920
  O       72.458      92.857     -72.144
  C       74.810      93.354     -71.734
  N       78.023      94.308     -75.588
  C       76.774      94.845     -75.345
  N       76.299      95.698     -76.279
  N       76.057      94.551     -74.293
  C       76.618      93.611     -73.497
  C       77.842      92.998     -73.643
  C       78.654      93.371     -74.784
  O       79.764      92.920     -75.048
  N       78.077      92.097     -72.632
  C       76.968      92.111     -71.922
  N       76.063      93.034     -72.392
  O       73.219      90.005     -65.565
  O       75.708      90.534     -65.824
  H       71.802      92.141     -72.218
  H       73.563      89.099     -65.664
  H       78.543      94.591     -76.400
  H       76.779      91.498     -71.048
  H       74.473      94.317     -72.135
  H       73.939      91.594     -72.761
  H       76.763      95.863     -77.158
  H       74.599      90.796     -70.622
  H       75.298      95.901     -76.274
  H       73.238      93.240     -69.344
  H       75.658      91.523     -68.592
  H       75.160      92.975     -67.733
  P       72.422      89.297     -70.638
  C       70.333      89.592     -72.160
  O       70.885      89.021     -70.995
  O       72.602      88.644     -69.189
  O       73.406      88.754     -71.617
  H       73.525      88.356     -69.060
  H       69.305      89.307     -72.244
  H       70.871      89.244     -73.017
  H       70.404      90.658     -72.103

 6  7  8  9  10  11  12  13  14  15  26  29  33  34 0
 6-311+G(2d,p)
 ****
 36  38  39  40  41 0
 6-311+G(2d,p)
 ****
 1  2  3  4  5  16  17  18  19  20  21  22  23  24  25 0
 3-21G
 ****
 27  28  30  31  32  35  37  42  43  44  45  46  47 0
 3-21G
 ****
 48  49 0
 3-21G
 ****


