%nproc=1
%NoSave
%Mem=1900MB
#P OB98/GEN NMR

erre ene a

0 1
  C      -10.983      26.518      25.856
  O      -11.319      25.154      25.980
  P      -12.843      24.666      25.952
  C      -12.421      23.250      28.063
  O      -13.226      24.257      27.460
  C      -12.450      23.390      29.589
  O      -12.056      24.753      29.940
  C      -13.847      23.132      30.188
  O      -13.869      22.167      31.240
  C      -14.311      24.527      30.570
  O      -15.336      24.545      31.545
  C      -12.988      25.203      30.943
  N      -13.096      26.659      30.990
  C      -13.433      27.231      32.212
  O      -13.632      26.598      33.245
  N      -13.601      28.588      32.213
  C      -13.584      29.398      31.117
  O      -13.841      30.592      31.175
  C      -13.262      28.730      29.846
  C      -13.013      27.419      29.840
  O      -13.162      23.624      24.934
  O      -13.658      26.033      25.763
  H      -15.605      25.473      31.680
  H      -13.521      26.691      26.466
  H      -13.846      29.016      33.092
  H      -13.250      29.346      28.958
  H      -12.773      26.900      28.918
  H      -12.620      24.854      31.909
  H      -14.721      25.002      29.669
  H      -14.527      22.716      29.434
  H      -11.710      22.698      30.002
  H      -11.393      23.364      27.712
  H      -12.767      22.259      27.748
  P      -14.381      20.658      31.093
  C      -16.640      20.916      32.355
  O      -15.981      20.667      31.131
  O      -13.734      19.675      32.009
  O      -14.058      20.302      29.565
  H      -13.892      19.344      29.482
  H      -17.609      20.411      32.340
  H      -16.808      21.992      32.460
  H      -16.061      20.550      33.207
  H       -9.920      26.629      25.899
  H      -11.432      27.070      26.655
  H      -11.342      26.890      24.919

 3  4  5  6  7  8  9  10  11  12  13  23  28  29  30  31  32 0
 6-311+G(2d,p)
 ****
 33  34 0
 6-311+G(2d,p)
 ****
 1  2  14  15  16  17  18  19  20  21  22  24  25  26  27 0
 3-21G
 ****
 35  36  37  38  39  40  41  42  43  44  45 0
 3-21G
 ****


