%nproc=1
%NoSave
%Mem=1900MB
#P OB98/GEN NMR

erre ene a

0 1
  C     1051.393    -142.243    -133.436
  O     1050.309    -142.899    -132.808
  P     1048.873    -142.928    -133.530
  C     1047.683    -143.180    -131.261
  O     1047.780    -142.426    -132.462
  C     1047.121    -142.310    -130.141
  O     1047.961    -141.148    -129.939
  C     1045.729    -141.760    -130.414
  O     1044.738    -142.758    -130.216
  C     1045.670    -140.598    -129.419
  O     1045.326    -141.090    -128.113
  C     1047.102    -140.092    -129.440
  N     1047.849    -135.038    -129.349
  C     1047.569    -135.920    -128.363
  N     1047.347    -137.256    -128.472
  C     1047.415    -137.636    -129.771
  C     1047.662    -136.844    -130.863
  C     1047.907    -135.479    -130.631
  N     1048.263    -134.574    -131.608
  N     1047.633    -137.607    -132.025
  C     1047.355    -138.824    -131.624
  N     1047.280    -138.906    -130.267
  O     1048.536    -144.205    -134.228
  O     1048.947    -141.716    -134.577
  H     1044.386    -141.371    -128.148
  H     1048.824    -142.061    -135.472
  H     1047.515    -135.515    -127.362
  H     1047.224    -139.690    -132.271
  H     1047.464    -139.843    -128.431
  H     1044.927    -139.833    -129.708
  H     1045.677    -141.357    -131.425
  H     1047.119    -142.895    -129.216
  H     1048.690    -143.522    -130.992
  H     1048.562    -133.666    -131.309
  H     1048.616    -134.935    -132.496
  H     1047.041    -144.053    -131.428
  P     1043.626    -142.993    -131.327
  C     1041.940    -143.750    -129.526
  O     1042.206    -142.855    -130.606
  O     1043.789    -144.231    -132.167
  O     1043.683    -141.664    -132.235
  H     1043.463    -141.890    -133.156
  H     1041.674    -144.722    -129.937
  H     1041.127    -143.355    -128.936
  H     1042.839    -143.838    -128.896
  H     1052.264    -142.322    -132.819
  H     1051.150    -141.211    -133.580
  H     1051.585    -142.700    -134.384

 3  4  5  6  7  8  9  10  11  12  22  25  29  30  31  32 0
 6-311+G(2d,p)
 ****
 33  36  37 0
 6-311+G(2d,p)
 ****
 1  2  13  14  15  16  17  18  19  20  21  23  24  26 0
 3-21G
 ****
 27  28  34  35  38  39  40  41  42  43  44  45  46  47  48 0
 3-21G
 ****


