%nproc=1
%NoSave
%Mem=1900MB
#P OB98/GEN NMR

erre ene a

0 1
  C     -138.546    -725.558     571.648
  O     -139.368    -725.000     572.653
  H     -137.647    -725.991     572.086
  H     -139.100    -726.355     571.139
  H     -138.280    -724.798     570.911
  P     -138.722    -723.837     573.544
  C     -139.549    -722.068     571.824
  O     -138.443    -722.595     572.559
  C     -139.089    -720.891     570.955
  O     -138.091    -721.395     570.022
  C     -140.216    -720.228     570.143
  O     -140.294    -718.831     570.461
  C     -139.767    -720.369     568.694
  O     -140.024    -719.218     567.903
  C     -138.264    -720.658     568.802
  N     -135.275    -720.473     564.675
  C     -135.287    -719.723     565.804
  N     -136.042    -719.899     566.917
  C     -136.832    -720.974     566.792
  C     -136.920    -721.836     565.709
  C     -136.109    -721.538     564.599
  N     -136.151    -722.236     563.419
  N     -137.866    -722.820     565.933
  C     -138.373    -722.551     567.116
  N     -137.786    -721.416     567.677
  O     -137.256    -724.394     573.876
  O     -139.474    -723.493     574.789
  H     -140.992    -719.163     567.805
  H     -137.068    -724.286     574.827
  H     -134.599    -718.897     565.828
  H     -139.175    -723.073     567.604
  H     -137.689    -719.732     568.877
  H     -140.293    -721.224     568.235
  H     -141.192    -720.700     570.291
  H     -138.600    -720.157     571.595
  H     -140.323    -721.700     572.531
  H     -135.612    -721.896     562.627
  H     -136.840    -722.972     563.317
  H     -139.995    -722.862     571.221
  P     -140.967    -718.457     571.867
  C     -138.612    -717.954     572.912
  O     -139.855    -718.671     573.005
  O     -141.999    -719.659     572.128
  O     -141.652    -717.130     571.868
  H     -142.735    -719.372     572.694
  H     -137.989    -718.210     573.744
  H     -138.806    -716.902     572.922
  H     -138.116    -718.217     572.001

 6  7  8  9  10  11  12  13  14  15  25  28  32  33  34  35 0
 6-311+G(2d,p)
 ****
 36  39  40 0
 6-311+G(2d,p)
 ****
 1  2  3  4  5  16  17  18  19  20  21  22  23  24 0
 3-21G
 ****
 26  27  29  30  31  37  38  41  42  43  44  45  46  47  48 0
 3-21G
 ****


