%nproc=1
%NoSave
%Mem=1900MB
#P OB98/GEN NMR

erre ene a

0 1
  C       43.448     -30.691      84.906
  O       43.653     -31.202      83.601
  P       44.261     -32.683      83.477
  C       42.103     -33.860      82.620
  O       43.043     -33.704      83.676
  C       42.301     -35.209      81.934
  O       42.009     -36.280      82.852
  C       41.399     -35.447      80.731
  O       41.849     -34.720      79.600
  C       41.504     -36.962      80.599
  O       42.735     -37.316      79.950
  C       41.534     -37.410      82.071
  N       38.174     -41.261      82.361
  C       39.382     -41.162      81.764
  N       40.206     -40.096      81.711
  C       39.677     -39.053      82.370
  C       38.450     -38.998      83.007
  C       37.678     -40.171      82.992
  N       36.444     -40.267      83.599
  N       38.235     -37.751      83.553
  C       39.320     -37.066      83.260
  N       40.227     -37.814      82.559
  O       45.103     -32.844      84.826
  O       45.100     -32.918      82.260
  H       42.909     -38.258      80.151
  H       45.899     -33.391      84.677
  H       39.734     -42.059      81.262
  H       39.497     -36.036      83.536
  H       42.223     -38.244      82.242
  H       40.687     -37.401      80.016
  H       40.366     -35.163      80.966
  H       43.356     -35.287      81.640
  H       42.247     -33.064      81.882
  H       35.896     -41.093      83.413
  H       36.018     -39.416      83.944
  H       41.092     -33.773      83.029
  P       40.742     -34.260      78.533
  C       40.637     -32.010      79.767
  O       39.904     -33.133      79.314
  O       39.744     -35.507      78.542
  O       41.280     -33.865      77.201
  H       39.504     -35.777      79.446
  H       39.943     -31.303      80.230
  H       41.138     -31.520      78.928
  H       41.375     -32.320      80.514
  H       43.042     -29.703      84.842
  H       44.382     -30.660      85.428
  H       42.766     -31.324      85.434

 3  4  5  6  7  8  9  10  11  12  22  25  29  30  31  32 0
 6-311+G(2d,p)
 ****
 33  36  37 0
 6-311+G(2d,p)
 ****
 1  2  13  14  15  16  17  18  19  20  21  23  24  26 0
 3-21G
 ****
 27  28  34  35  38  39  40  41  42  43  44  45  46  47  48 0
 3-21G
 ****


