%nproc=1
%NoSave
%Mem=1900MB
#P OB98/GEN NMR

erre ene a

0 1
  C      235.700      46.978     -32.277
  O      235.393      48.278     -31.810
  P      234.929      49.423     -32.825
  C      237.286      50.425     -32.874
  O      236.225      49.890     -33.653
  C      238.520      50.703     -33.731
  O      239.033      49.442     -34.244
  C      238.272      51.619     -34.936
  O      239.466      52.385     -35.126
  C      238.112      50.632     -36.081
  O      238.337      51.222     -37.356
  C      239.139      49.580     -35.677
  N      240.879      46.226     -39.121
  C      241.319      47.448     -38.753
  N      240.786      48.292     -37.847
  C      239.686      47.757     -37.292
  C      239.100      46.537     -37.585
  C      239.756      45.739     -38.539
  N      239.340      44.477     -38.899
  N      237.943      46.369     -36.846
  C      237.838      47.465     -36.124
  N      238.902      48.303     -36.312
  O      234.147      50.538     -32.215
  O      234.063      48.642     -33.921
  H      238.467      50.507     -38.006
  H      233.112      48.832     -33.788
  H      242.222      47.793     -39.249
  H      237.021      47.702     -35.455
  H      240.164      49.891     -35.913
  H      237.095      50.221     -36.073
  H      237.404      52.276     -34.823
  H      239.298      51.125     -33.083
  H      237.540      49.694     -32.100
  H      239.958      43.943     -39.491
  H      238.676      43.990     -38.301
  H      236.955      51.347     -32.381
  P      239.492      53.575     -36.198
  C      240.243      51.938     -38.017
  O      239.277      52.900     -37.634
  O      240.654      54.504     -36.094
  O      238.101      54.334     -35.944
  H      238.140      55.226     -36.344
  H      241.132      52.449     -38.396
  H      239.826      51.310     -38.810
  H      240.523      51.304     -37.172
  H      235.988      46.361     -31.451
  H      236.505      47.032     -32.979
  H      234.839      46.558     -32.753

 3  4  5  6  7  8  9  10  11  12  22  25  29  30  31  32 0
 6-311+G(2d,p)
 ****
 33  36  37 0
 6-311+G(2d,p)
 ****
 1  2  13  14  15  16  17  18  19  20  21  23  24  26 0
 3-21G
 ****
 27  28  34  35  38  39  40  41  42  43  44  45  46  47  48 0
 3-21G
 ****


