%nproc=1
%NoSave
%Mem=1900MB
#P OB98/GEN NMR

erre ene a

0 1
  C       29.735      70.836     147.671
  O       28.705      70.150     148.381
  P       27.731      71.003     149.326
  C       25.518      70.791     148.016
  O       26.578      71.652     148.418
  C       24.326      71.609     147.491
  O       23.805      72.426     148.574
  C       24.661      72.586     146.359
  O       24.585      72.115     145.016
  C       23.550      73.621     146.520
  O       22.356      73.160     145.861
  C       23.317      73.669     148.027
  N       23.410      78.762     148.492
  C       22.619      77.935     147.776
  N       22.661      76.589     147.706
  C       23.634      76.101     148.491
  C       24.516      76.820     149.279
  C       24.382      78.218     149.262
  N       25.195      79.062     149.982
  N       25.383      75.974     149.938
  C       25.040      74.766     149.537
  N       23.981      74.788     148.673
  O       28.398      71.934     150.280
  O       26.932      69.858     150.118
  H       21.683      73.854     145.990
  H       26.786      70.153     151.037
  H       21.852      78.418     147.176
  H       25.529      73.853     149.845
  H       22.254      73.740     148.282
  H       23.807      74.582     146.066
  H       25.635      73.059     146.527
  H       23.533      70.922     147.170
  H       25.200      70.181     148.865
  H       25.060      80.055     149.879
  H       25.961      78.677     150.516
  H       25.918      70.106     147.267
  P       25.799      72.317     143.991
  C       26.026      69.716     144.142
  O       26.665      70.972     144.078
  O       26.582      73.570     144.177
  O       25.078      72.190     142.570
  H       24.747      71.300     142.366
  H       26.772      68.934     143.978
  H       25.253      69.632     143.374
  H       25.582      69.578     145.132
  H       30.295      70.134     147.089
  H       30.386      71.322     148.368
  H       29.296      71.567     147.024

 3  4  5  6  7  8  9  10  11  12  22  25  29  30  31  32 0
 6-311+G(2d,p)
 ****
 33  36  37 0
 6-311+G(2d,p)
 ****
 1  2  13  14  15  16  17  18  19  20  21  23  24  26 0
 3-21G
 ****
 27  28  34  35  38  39  40  41  42  43  44  45  46  47  48 0
 3-21G
 ****


