%nproc=1
%NoSave
%Mem=1900MB
#P OB98/GEN NMR

erre ene a

0 1
  C     -688.291     820.426     -23.545
  O     -687.585     819.694     -24.518
  H     -687.913     821.452     -23.490
  H     -689.346     820.457     -23.823
  H     -688.205     819.941     -22.562
  P     -685.986     819.619     -24.337
  C     -685.536     821.431     -26.141
  O     -685.415     821.060     -24.773
  C     -684.406     822.367     -26.536
  O     -684.391     823.523     -25.669
  C     -683.005     821.766     -26.425
  O     -682.702     820.924     -27.531
  C     -682.156     823.036     -26.430
  O     -681.988     823.499     -27.777
  C     -683.027     824.017     -25.638
  N     -680.478     826.947     -22.269
  C     -680.701     827.085     -23.596
  N     -681.369     826.269     -24.427
  C     -681.868     825.202     -23.757
  C     -681.715     824.934     -22.401
  C     -680.982     825.856     -21.642
  N     -680.746     825.698     -20.290
  N     -682.376     823.765     -22.071
  C     -682.899     823.338     -23.205
  N     -682.619     824.174     -24.246
  O     -685.513     818.661     -25.528
  O     -685.513     819.118     -23.010
  H     -681.428     822.835     -28.234
  H     -684.759     818.118     -25.225
  H     -680.279     827.988     -24.056
  H     -683.503     822.438     -23.300
  H     -683.034     825.010     -26.096
  H     -681.155     822.875     -26.014
  H     -682.872     821.243     -25.474
  H     -684.600     822.725     -27.562
  H     -686.498     821.936     -26.298
  H     -680.393     826.479     -19.776
  H     -681.141     824.880     -19.833
  H     -685.510     820.530     -26.757
  P     -681.681     819.723     -27.287
  C     -679.753     820.937     -28.519
  O     -680.215     820.376     -27.300
  O     -681.734     818.910     -28.668
  O     -682.000     818.848     -26.113
  H     -681.483     817.973     -28.513
  H     -678.768     821.332     -28.379
  H     -680.413     821.723     -28.823
  H     -679.729     820.179     -29.274

 6  7  8  9  10  11  12  13  14  15  25  28  32  33  34  35 0
 6-311+G(2d,p)
 ****
 36  39  40 0
 6-311+G(2d,p)
 ****
 1  2  3  4  5  16  17  18  19  20  21  22  23  24 0
 3-21G
 ****
 26  27  29  30  31  37  38  41  42  43  44  45  46  47  48 0
 3-21G
 ****


