%nproc=1
%NoSave
%Mem=1900MB
#P OB98/GEN NMR

erre ene a

0 1
  C      186.733      81.374    -228.098
  O      185.514      81.731    -227.443
  P      184.968      80.809    -226.249
  C      183.686      78.861    -227.333
  O      184.921      79.283    -226.761
  C      183.812      77.485    -228.028
  O      184.117      76.441    -227.063
  C      182.547      77.052    -228.779
  O      182.973      76.327    -229.944
  C      181.878      76.105    -227.786
  O      180.922      75.259    -228.396
  C      183.117      75.412    -227.205
  N      182.836      74.747    -225.939
  C      182.025      73.613    -225.979
  O      181.490      73.277    -227.045
  N      181.815      72.917    -224.823
  C      182.256      73.385    -223.693
  N      182.039      72.659    -222.566
  C      182.959      74.683    -223.585
  C      183.239      75.286    -224.737
  O      183.725      81.285    -225.578
  O      186.213      80.787    -225.219
  H      180.374      74.842    -227.697
  H      185.858      80.754    -224.307
  H      183.241      75.079    -222.622
  H      183.764      76.232    -224.767
  H      183.516      74.673    -227.907
  H      181.366      76.691    -227.013
  H      181.905      77.888    -229.093
  H      184.648      77.537    -228.729
  H      181.531      71.787    -222.648
  H      183.359      79.601    -228.064
  H      182.397      72.930    -221.661
  H      182.915      78.839    -226.558
  P      182.549      76.885    -231.396
  C      180.870      74.969    -231.911
  O      181.068      76.357    -231.720
  O      183.451      75.984    -232.363
  O      182.808      78.337    -231.648
  H      183.589      76.469    -233.206
  H      179.797      74.751    -231.836
  H      181.397      74.380    -231.153
  H      181.224      74.669    -232.905
  H      186.950      82.090    -228.863
  H      186.631      80.403    -228.536
  H      187.531      81.362    -227.385

 3  4  5  6  7  8  9  10  11  12  13  23  27  28  29  30  32 0
 6-311+G(2d,p)
 ****
 34  35 0
 6-311+G(2d,p)
 ****
 1  2  14  15  16  17  18  19  20  21  22  24  25  26 0
 3-21G
 ****
 31  33  36  37  38  39  40  41  42  43  44  45  46 0
 3-21G
 ****


