%nproc=1
%NoSave
%Mem=1900MB
#P OB98/GEN NMR

erre ene a

0 1
  C     -303.590    -410.705     636.969
  O     -302.328    -411.054     637.528
  P     -301.834    -410.661     638.994
  C     -299.534    -409.873     637.984
  O     -300.237    -410.590     638.989
  C     -298.061    -410.308     637.917
  O     -297.325    -409.625     638.969
  C     -297.880    -411.818     638.151
  O     -296.931    -412.419     637.280
  C     -297.607    -411.897     639.639
  O     -296.976    -413.106     640.038
  C     -296.811    -410.615     639.888
  N     -294.466    -410.087     644.395
  C     -294.055    -410.783     643.270
  N     -292.878    -411.439     643.358
  N     -294.750    -410.845     642.164
  C     -295.948    -410.212     642.241
  C     -296.467    -409.512     643.300
  C     -295.671    -409.406     644.502
  O     -295.976    -408.790     645.522
  N     -297.703    -409.000     642.999
  C     -297.941    -409.412     641.772
  N     -296.895    -410.145     641.262
  O     -302.473    -411.397     640.119
  O     -302.255    -409.109     639.131
  H     -296.853    -413.075     641.004
  H     -302.459    -408.963     640.078
  H     -293.881    -410.056     645.210
  H     -298.834    -409.193     641.202
  H     -295.751    -410.747     639.681
  H     -298.571    -411.855     640.157
  H     -292.354    -411.535     644.210
  H     -298.807    -412.355     637.926
  H     -292.697    -412.118     642.615
  H     -297.647    -409.998     636.956
  H     -299.599    -408.820     638.263
  H     -300.030    -409.990     637.018
  P     -297.182    -413.437     636.074
  C     -296.898    -415.616     637.399
  O     -296.373    -414.788     636.375
  O     -296.388    -412.813     634.834
  O     -298.620    -413.646     635.722
  H     -297.019    -412.607     634.114
  H     -296.131    -416.348     637.679
  H     -297.775    -416.155     637.022
  H     -297.169    -415.026     638.272
  H     -303.660    -411.095     635.975
  H     -303.686    -409.640     636.942
  H     -304.373    -411.118     637.570

 3  4  5  6  7  8  9  10  11  12  23  26  30  31 0
 6-311+G(2d,p)
 ****
 33  35  36  37  38 0
 6-311+G(2d,p)
 ****
 1  2  13  14  15  16  17  18  19  20  21  22  24  25 0
 3-21G
 ****
 27  28  29  32  34  39  40  41  42  43  44  45  46  47  48  49 0
 3-21G
 ****


