%nproc=1
%NoSave
%Mem=1900MB
#P OB98/GEN NMR

erre ene a

0 1
  C     -154.860     271.920      -6.463
  O     -154.456     270.575      -6.292
  H     -155.653     272.145      -5.742
  H     -155.250     272.074      -7.472
  H     -154.018     272.594      -6.279
  P     -153.334     270.023      -7.298
  C     -151.526     270.482      -5.488
  O     -151.941     270.672      -6.835
  C     -150.394     269.460      -5.441
  O     -149.275     269.933      -6.229
  C     -149.834     269.220      -4.044
  O     -150.659     268.364      -3.275
  C     -148.486     268.596      -4.379
  O     -148.605     267.186      -4.625
  C     -148.079     269.353      -5.663
  N     -147.053     270.354      -5.409
  C     -145.737     269.944      -5.629
  O     -145.440     268.814      -6.010
  N     -144.769     270.876      -5.354
  C     -144.977     272.128      -4.860
  O     -144.058     272.884      -4.565
  C     -146.389     272.513      -4.663
  C     -147.346     271.619      -4.931
  O     -153.671     270.779      -8.667
  O     -153.310     268.539      -7.465
  H     -154.126     270.174      -9.280
  H     -149.318     267.085      -5.289
  H     -143.816     270.591      -5.495
  H     -146.589     273.506      -4.272
  H     -148.387     271.874      -4.773
  H     -147.688     268.647      -6.412
  H     -147.774     268.716      -3.562
  H     -149.662     270.177      -3.532
  H     -150.755     268.519      -5.880
  H     -152.368     270.111      -4.893
  H     -151.205     271.445      -5.073
  P     -150.538     268.422      -1.674
  C     -151.858     270.699      -1.641
  O     -150.711     269.964      -1.260
  O     -148.981     268.134      -1.469
  O     -151.456     267.483      -0.967
  H     -148.425     268.521      -2.169
  H     -151.780     271.699      -1.269
  H     -152.731     270.234      -1.234
  H     -151.930     270.720      -2.708

 6  7  8  9  10  11  12  13  14  15  16  27  31  32  33  34  35 0
 6-311+G(2d,p)
 ****
 36  37 0
 6-311+G(2d,p)
 ****
 1  2  3  4  5  17  18  19  20  21  22  23  24  25 0
 3-21G
 ****
 26  28  29  30  38  39  40  41  42  43  44  45 0
 3-21G
 ****


