%nproc=1
%NoSave
%Mem=1900MB
#P OB98/GEN NMR

erre ene a

0 1
  C       61.417      64.045    -115.150
  O       62.151      65.038    -115.838
  P       62.233      66.537    -115.286
  C       60.262      67.455    -116.645
  O       60.762      67.171    -115.345
  C       59.126      68.476    -116.594
  O       57.962      67.871    -115.974
  C       59.466      69.754    -115.813
  O       58.855      70.849    -116.504
  C       58.791      69.524    -114.474
  O       58.539      70.739    -113.778
  C       57.540      68.751    -114.913
  N       56.930      68.013    -113.819
  C       55.773      68.555    -113.257
  O       55.387      69.674    -113.597
  N       55.096      67.821    -112.315
  C       55.633      66.737    -111.842
  N       54.898      66.004    -110.962
  C       56.977      66.269    -112.238
  C       57.545      66.920    -113.249
  O       63.296      67.384    -115.909
  O       62.488      66.365    -113.715
  H       63.276      66.887    -113.460
  H       58.060      70.533    -112.948
  H       57.433      65.434    -111.727
  H       58.519      66.634    -113.631
  H       56.794      69.436    -115.338
  H       59.428      68.896    -113.842
  H       60.543      69.929    -115.734
  H       58.851      68.730    -117.625
  H       53.966      66.334    -110.746
  H       59.885      66.525    -117.076
  H       55.084      65.017    -110.793
  H       61.077      67.814    -117.286
  P       59.765      72.121    -116.872
  C       59.128      73.444    -114.732
  O       60.155      72.858    -115.502
  O       58.677      73.126    -117.494
  O       60.864      71.893    -117.857
  H       59.126      73.745    -118.101
  H       59.579      73.956    -113.877
  H       58.448      72.674    -114.355
  H       58.570      74.174    -115.323
  H       61.488      63.118    -115.680
  H       60.391      64.341    -115.085
  H       61.817      63.924    -114.165

 3  4  5  6  7  8  9  10  11  12  13  24  27  28  29  30  32 0
 6-311+G(2d,p)
 ****
 34  35 0
 6-311+G(2d,p)
 ****
 1  2  14  15  16  17  18  19  20  21  22  23  25  26 0
 3-21G
 ****
 31  33  36  37  38  39  40  41  42  43  44  45  46 0
 3-21G
 ****


