%nproc=1
%NoSave
%Mem=1900MB
#P OB98/GEN NMR

erre ene a

0 1
  C     -268.577     475.672     122.076
  O     -267.989     474.768     123.019
  P     -268.681     474.682     124.466
  C     -268.204     472.140     124.715
  O     -268.038     473.445     125.254
  C     -268.028     471.088     125.808
  O     -266.743     471.202     126.458
  C     -269.052     471.209     126.931
  O     -270.319     470.720     126.521
  C     -268.379     470.380     128.025
  O     -268.578     468.981     127.790
  C     -266.896     470.736     127.823
  N     -265.206     471.645     132.569
  C     -265.614     470.508     131.953
  N     -266.052     470.351     130.688
  C     -266.035     471.522     130.027
  C     -265.646     472.758     130.519
  C     -265.215     472.798     131.853
  N     -264.818     473.957     132.482
  N     -265.768     473.730     129.546
  C     -266.246     473.093     128.494
  N     -266.417     471.757     128.734
  O     -270.169     474.194     124.132
  O     -268.677     475.979     125.206
  H     -269.536     468.800     127.888
  H     -270.800     474.926     124.271
  H     -265.583     469.611     132.562
  H     -266.489     473.558     127.544
  H     -266.241     469.864     127.944
  H     -268.757     470.608     129.024
  H     -269.142     472.255     127.255
  H     -268.100     470.097     125.345
  H     -267.477     471.964     123.914
  H     -264.597     473.908     133.467
  H     -264.902     474.836     131.992
  H     -269.198     472.071     124.255
  P     -271.302     471.736     125.760
  C     -272.639     469.900     124.567
  O     -272.655     470.890     125.580
  O     -270.688     471.741     124.288
  O     -271.452     473.070     126.408
  H     -270.482     470.835     123.977
  H     -273.603     469.379     124.572
  H     -271.847     469.177     124.753
  H     -272.500     470.369     123.588
  H     -268.028     475.637     121.158
  H     -268.549     476.666     122.470
  H     -269.593     475.388     121.895

 3  4  5  6  7  8  9  10  11  12  22  25  29  30  31  32 0
 6-311+G(2d,p)
 ****
 33  36  37 0
 6-311+G(2d,p)
 ****
 1  2  13  14  15  16  17  18  19  20  21  23  24  26 0
 3-21G
 ****
 27  28  34  35  38  39  40  41  42  43  44  45  46  47  48 0
 3-21G
 ****


