%nproc=1
%NoSave
%Mem=1900MB
#P OB98/GEN NMR

erre ene a

0 1
  C     -480.337     -81.643    -158.184
  O     -481.032     -80.415    -158.266
  H     -481.044     -82.450    -157.979
  H     -479.852     -81.838    -159.146
  H     -479.573     -81.607    -157.404
  P     -481.568     -79.782    -156.892
  C     -480.527     -77.535    -157.679
  O     -481.663     -78.192    -157.132
  C     -480.882     -76.105    -158.086
  O     -481.655     -76.154    -159.320
  C     -481.712     -75.340    -157.041
  O     -481.266     -73.978    -157.018
  C     -483.121     -75.384    -157.613
  O     -483.934     -74.304    -157.162
  C     -482.833     -75.351    -159.113
  N     -487.738     -74.539    -160.200
  C     -486.787     -73.746    -159.658
  N     -485.484     -74.022    -159.453
  C     -485.179     -75.243    -159.931
  C     -486.033     -76.166    -160.511
  C     -487.380     -75.777    -160.627
  N     -488.369     -76.607    -161.111
  N     -485.353     -77.328    -160.819
  C     -484.116     -77.118    -160.411
  N     -483.964     -75.874    -159.864
  O     -480.299     -79.940    -155.925
  O     -482.790     -80.421    -156.318
  H     -483.508     -73.463    -157.413
  H     -480.324     -80.813    -155.493
  H     -487.123     -72.757    -159.344
  H     -483.310     -77.841    -160.456
  H     -482.631     -74.339    -159.483
  H     -483.603     -76.325    -157.324
  H     -481.660     -75.765    -156.032
  H     -479.953     -75.565    -158.310
  H     -480.191     -78.083    -158.569
  H     -489.320     -76.284    -161.054
  H     -488.140     -77.564    -161.329
  H     -479.721     -77.530    -156.938
  P     -480.435     -73.499    -155.730
  C     -478.578     -72.278    -157.093
  O     -479.611     -72.180    -156.118
  O     -479.295     -74.619    -155.595
  O     -481.254     -73.388    -154.485
  H     -479.069     -74.756    -154.656
  H     -478.130     -71.317    -157.236
  H     -478.992     -72.619    -158.019
  H     -477.835     -72.971    -156.757

 6  7  8  9  10  11  12  13  14  15  25  28  32  33  34  35 0
 6-311+G(2d,p)
 ****
 36  39  40 0
 6-311+G(2d,p)
 ****
 1  2  3  4  5  16  17  18  19  20  21  22  23  24 0
 3-21G
 ****
 26  27  29  30  31  37  38  41  42  43  44  45  46  47 0
 3-21G
 ****
 48 0
 3-21G
 ****


