%nproc=1
%NoSave
%Mem=1900MB
#P OB98/GEN NMR

erre ene a

0 1
  C       52.419      80.778    -105.801
  O       53.432      81.753    -105.943
  H       52.620      79.959    -106.498
  H       51.447      81.212    -106.043
  H       52.403      80.374    -104.785
  P       53.534      82.929    -104.859
  C       56.036      83.420    -105.257
  O       54.705      83.909    -105.352
  C       56.978      84.239    -106.143
  O       56.614      84.016    -107.539
  C       56.914      85.760    -105.889
  O       58.221      86.291    -106.145
  C       55.930      86.192    -106.961
  O       55.940      87.582    -107.150
  C       56.409      85.319    -108.123
  N       55.469      85.262    -109.236
  C       55.728      86.074    -110.334
  O       56.708      86.814    -110.425
  N       54.804      86.022    -111.344
  C       53.674      85.260    -111.357
  O       52.889      85.234    -112.299
  C       53.438      84.442    -110.154
  C       54.333      84.480    -109.165
  O       53.634      82.491    -103.436
  O       52.211      83.795    -105.115
  H       51.523      83.538    -104.475
  H       55.379      87.829    -107.917
  H       54.976      86.605    -112.148
  H       52.540      83.844    -110.125
  H       54.193      83.894    -108.263
  H       57.382      85.664    -108.492
  H       54.910      85.921    -106.669
  H       56.609      86.010    -104.870
  H       58.000      83.862    -106.017
  H       56.038      82.373    -105.580
  H       56.364      83.471    -104.213
  P       59.060      87.126    -105.060
  C       61.393      86.424    -105.904
  O       60.497      87.502    -105.671
  O       59.142      86.460    -103.724
  O       58.315      88.539    -104.937
  H       58.361      88.847    -104.012
  H       62.308      86.802    -106.309
  H       60.953      85.738    -106.597
  H       61.592      85.920    -104.981

 6  7  8  9  10  11  12  13  14  15  16  27  31  32  33  34  35 0
 6-311+G(2d,p)
 ****
 36  37 0
 6-311+G(2d,p)
 ****
 1  2  3  4  5  17  18  19  20  21  22  23  24  25 0
 3-21G
 ****
 26  28  29  30  38  39  40  41  42  43  44  45 0
 3-21G
 ****


