%nproc=1
%NoSave
%Mem=1900MB
#P OB98/GEN NMR

erre ene a

0 1
  C       -0.806     170.057    -259.135
  O       -0.590     171.230    -259.895
  H       -0.018     169.976    -258.382
  H       -0.767     169.177    -259.782
  H       -1.775     170.108    -258.628
  P       -1.636     171.517    -261.078
  C        0.113     173.265    -261.862
  O       -0.803     172.248    -262.240
  C        0.711     173.928    -263.098
  O        1.692     173.065    -263.717
  C       -0.303     174.280    -264.180
  O       -0.946     175.511    -263.898
  C        0.588     174.351    -265.412
  O        1.275     175.616    -265.494
  C        1.577     173.205    -265.159
  N        1.076     170.686    -269.506
  C        1.571     171.951    -269.260
  N        1.939     172.671    -270.343
  N        1.687     172.468    -268.067
  C        1.249     171.644    -267.085
  C        0.753     170.364    -267.198
  C        0.662     169.794    -268.524
  O        0.292     168.658    -268.802
  N        0.433     169.847    -265.971
  C        0.697     170.820    -265.121
  N        1.179     171.939    -265.751
  O       -2.552     172.693    -260.490
  O       -2.454     170.347    -261.507
  H        1.829     175.628    -266.293
  H       -3.450     172.614    -260.863
  H        1.029     170.337    -270.446
  H        0.558     170.766    -264.051
  H        2.579     173.433    -265.543
  H        0.010     174.249    -266.332
  H        1.571     172.470    -271.263
  H       -1.034     173.471    -264.304
  H        2.283     173.608    -270.174
  H        1.241     174.830    -262.763
  H        0.916     172.818    -261.269
  H       -0.409     174.011    -261.251
  P       -2.545     175.570    -264.050
  C       -2.241     178.123    -264.446
  O       -2.872     176.918    -264.856
  O       -3.043     175.899    -262.566
  O       -3.164     174.325    -264.589
  H       -3.994     175.692    -262.480
  H       -2.560     178.925    -265.078
  H       -1.179     178.012    -264.519
  H       -2.509     178.339    -263.433

 6  7  8  9  10  11  12  13  14  15  26  29  33  34 0
 6-311+G(2d,p)
 ****
 36  38  39  40  41 0
 6-311+G(2d,p)
 ****
 1  2  3  4  5  16  17  18  19  20  21  22  23  24  25 0
 3-21G
 ****
 27  28  30  31  32  35  37  42  43  44  45  46  47 0
 3-21G
 ****
 48  49 0
 3-21G
 ****


