%nproc=1
%NoSave
%Mem=1900MB
#P OB98/GEN NMR

erre ene a

0 1
  C     -891.760    -892.050     -53.232
  O     -892.280    -891.500     -54.458
  P     -892.610    -892.570     -55.586
  C     -895.070    -891.830     -55.950
  O     -894.210    -892.900     -55.586
  C     -896.490    -892.030     -55.367
  O     -897.030    -893.260     -55.809
  C     -896.500    -892.010     -53.821
  O     -897.750    -891.430     -53.387
  C     -896.530    -893.510     -53.460
  O     -897.010    -893.710     -52.166
  C     -897.430    -894.020     -54.622
  N     -897.280    -895.440     -54.819
  C     -898.330    -896.300     -54.429
  O     -899.290    -895.830     -53.858
  N     -898.240    -897.640     -54.682
  C     -897.160    -898.120     -55.211
  N     -897.150    -899.480     -55.429
  C     -896.000    -897.300     -55.588
  C     -896.140    -895.970     -55.389
  O     -891.950    -893.930     -55.092
  O     -892.060    -892.150     -56.948
  H     -897.940    -893.330     -52.086
  H     -891.430    -894.310     -55.775
  H     -895.130    -897.760     -56.030
  H     -895.350    -895.270     -55.638
  H     -898.520    -893.850     -54.405
  H     -895.510    -893.940     -53.564
  H     -895.670    -891.490     -53.341
  H     -897.130    -891.240     -55.715
  H     -897.950    -900.000     -55.163
  H     -895.170    -891.750     -57.048
  H     -896.340    -899.970     -55.829
  H     -894.640    -890.880     -55.579
  P     -897.700    -889.880     -52.943
  C     -899.110    -889.510     -55.078
  O     -898.030    -889.090     -54.308
  O     -896.180    -889.650     -52.728
  O     -898.530    -889.500     -51.761
  H     -896.040    -888.740     -52.406
  H     -899.280    -888.780     -55.892
  H     -900.000    -889.560     -54.466
  H     -898.930    -890.500     -55.553
  H     -891.570    -891.258     -52.538
  H     -890.849    -892.574     -53.434
  H     -892.475    -892.727     -52.813

 3  4  5  6  7  8  9  10  11  12  13  21  23  27  28  29  30  32 0
 6-311+G(2d,p)
 ****
 34  35 0
 6-311+G(2d,p)
 ****
 1  2  14  15  16  17  18  19  20  22  24  25  26 0
 3-21G
 ****
 31  33  36  37  38  39  40  41  42  43  44  45  46 0
 3-21G
 ****


