%nproc=1
%NoSave
%Mem=1900MB
#P OB98/GEN NMR

erre ene a

0 1
  C       -9.064     314.043      22.848
  O       -9.073     315.422      23.179
  P      -10.497     316.173      23.160
  C      -12.272     316.273      21.262
  O      -10.902     316.365      21.622
  C      -12.442     316.513      19.761
  O      -11.633     315.577      19.018
  C      -13.861     316.326      19.246
  O      -14.681     317.430      19.584
  C      -13.594     316.169      17.749
  O      -13.370     317.453      17.153
  C      -12.288     315.347      17.747
  N      -11.605     311.311      14.667
  C      -11.288     312.613      14.531
  N      -11.523     313.634      15.379
  C      -12.149     313.196      16.483
  C      -12.557     311.900      16.758
  C      -12.263     310.926      15.793
  N      -12.591     309.594      15.941
  N      -13.195     311.836      17.979
  C      -13.162     313.068      18.438
  N      -12.531     313.927      17.578
  O      -10.127     317.654      23.630
  O      -11.546     315.548      24.027
  H      -13.330     317.324      16.185
  H      -10.854     318.043      24.159
  H      -10.769     312.876      13.604
  H      -13.574     313.386      19.387
  H      -11.602     315.662      16.954
  H      -14.421     315.691      17.218
  H      -14.297     315.404      19.646
  H      -12.085     317.530      19.538
  H      -12.847     317.035      21.807
  H      -12.475     308.992      15.138
  H      -13.202     309.341      16.708
  H      -12.651     315.287      21.548
  P      -16.256     317.278      19.333
  C      -17.448     317.128      17.060
  O      -16.453     317.788      17.822
  O      -16.842     318.495      20.189
  O      -16.818     315.936      19.646
  H      -16.370     319.332      20.009
  H      -17.511     317.604      16.077
  H      -18.418     317.206      17.559
  H      -17.181     316.075      16.931
  H       -8.062     313.671      22.899
  H       -9.443     313.912      21.856
  H       -9.680     313.506      23.539

 3  4  5  6  7  8  9  10  11  12  22  25  29  30  31  32 0
 6-311+G(2d,p)
 ****
 33  36  37 0
 6-311+G(2d,p)
 ****
 1  2  13  14  15  16  17  18  19  20  21  23  24  26 0
 3-21G
 ****
 27  28  34  35  38  39  40  41  42  43  44  45  46  47  48 0
 3-21G
 ****


