%nproc=1
%NoSave
%Mem=1900MB
#P OB98/GEN NMR

erre ene a

0 1
  C     -835.322    -305.935    -292.949
  O     -835.671    -307.138    -293.603
  H     -835.219    -305.145    -293.696
  H     -834.373    -306.048    -292.422
  H     -836.108    -305.652    -292.241
  P     -835.772    -308.455    -292.698
  C     -834.001    -309.533    -294.265
  O     -834.418    -309.284    -292.929
  C     -832.476    -309.548    -294.326
  O     -831.948    -308.323    -293.761
  C     -831.831    -310.670    -293.528
  O     -831.867    -311.916    -294.205
  C     -830.412    -310.141    -293.375
  O     -829.605    -310.445    -294.517
  C     -830.635    -308.624    -293.241
  N     -830.479    -308.171    -291.858
  C     -829.169    -307.911    -291.459
  O     -828.195    -308.040    -292.199
  N     -829.014    -307.527    -290.158
  C     -830.003    -307.430    -289.222
  O     -829.785    -307.139    -288.053
  C     -831.363    -307.735    -289.699
  C     -831.535    -308.089    -290.978
  O     -836.886    -309.329    -293.446
  O     -836.119    -308.211    -291.267
  H     -837.719    -309.309    -292.934
  H     -828.691    -310.180    -294.283
  H     -828.071    -307.333    -289.845
  H     -832.176    -307.670    -288.983
  H     -832.524    -308.328    -291.348
  H     -829.922    -308.078    -293.865
  H     -829.929    -310.578    -292.507
  H     -832.295    -310.741    -292.532
  H     -832.164    -309.600    -295.381
  H     -834.371    -308.741    -294.922
  H     -834.413    -310.488    -294.601
  P     -832.692    -313.115    -293.516
  C     -830.320    -314.141    -293.011
  O     -831.645    -313.879    -292.573
  O     -832.895    -314.083    -294.771
  O     -833.950    -312.654    -292.857
  H     -832.187    -313.978    -295.432
  H     -829.785    -314.656    -292.241
  H     -829.828    -313.217    -293.230
  H     -830.349    -314.748    -293.892

 6  7  8  9  10  11  12  13  14  15  16  27  31  32  33  34  35 0
 6-311+G(2d,p)
 ****
 36  37 0
 6-311+G(2d,p)
 ****
 1  2  3  4  5  17  18  19  20  21  22  23  24  25 0
 3-21G
 ****
 26  28  29  30  38  39  40  41  42  43  44  45 0
 3-21G
 ****


