%nproc=1
%NoSave
%Mem=1900MB
#P OB98/GEN NMR

erre ene a

0 1
  C      198.630       7.143      48.395
  O      198.530       7.773      49.651
  P      197.988       9.260      49.855
  C      200.456      10.020      50.275
  O      199.207      10.281      49.643
  C      201.487      11.101      49.919
  O      201.553      11.217      48.473
  C      201.071      12.478      50.460
  O      202.143      13.233      51.015
  C      200.321      13.092      49.286
  O      200.221      14.507      49.352
  C      201.097      12.534      48.096
  N      200.075      14.621      43.577
  C      201.102      14.908      44.453
  N      201.835      16.006      44.170
  N      201.356      14.199      45.524
  C      200.469      13.198      45.735
  C      199.413      12.820      44.938
  C      199.166      13.589      43.741
  O      198.197      13.441      42.994
  N      198.687      11.805      45.501
  C      199.281      11.589      46.658
  N      200.347      12.436      46.860
  O      197.075       9.486      51.017
  O      197.127       9.482      48.507
  H      201.110      14.873      49.188
  H      196.368      10.054      48.742
  H      199.879      15.254      42.809
  H      198.965      10.861      47.398
  H      201.974      13.142      47.869
  H      199.300      12.702      49.306
  H      201.571      16.649      43.439
  H      200.380      12.367      51.303
  H      202.420      16.374      44.917
  H      202.475      10.788      50.276
  H      200.790       9.044      49.902
  H      200.333       9.943      51.355
  P      202.082      14.464      52.029
  C      202.204      16.197      50.141
  O      201.471      15.730      51.258
  O      203.605      14.889      52.258
  O      201.426      14.163      53.337
  H      203.740      15.130      53.196
  H      201.848      17.200      49.884
  H      202.038      15.532      49.289
  H      203.273      16.245      50.368
  H      199.019       6.154      48.522
  H      199.286       7.706      47.765
  H      197.661       7.090      47.945

 3  4  5  6  7  8  9  10  11  12  23  26  30  31 0
 6-311+G(2d,p)
 ****
 33  35  36  37  38 0
 6-311+G(2d,p)
 ****
 1  2  13  14  15  16  17  18  19  20  21  22  24  25 0
 3-21G
 ****
 27  28  29  32  34  39  40  41  42  43  44  45  46  47  48  49 0
 3-21G
 ****


