%nproc=1
%NoSave
%Mem=1900MB
#P OB98/GEN NMR

erre ene a

0 1
  C      108.422       0.644     -88.849
  O      108.342      -0.659     -89.436
  P      109.717      -1.358     -89.872
  C      110.228      -2.436     -87.558
  O      109.956      -2.638     -88.940
  C      111.195      -3.506     -87.049
  O      111.635      -3.217     -85.709
  C      110.572      -4.889     -86.974
  O      110.508      -5.477     -88.258
  C      111.511      -5.608     -86.013
  O      112.592      -6.251     -86.708
  C      112.037      -4.464     -85.117
  N      111.577      -4.571     -83.743
  C      112.206      -5.544     -82.960
  O      113.078      -6.265     -83.450
  N      111.813      -5.691     -81.655
  C      110.859      -4.951     -81.182
  N      110.510      -5.146     -79.883
  C      110.152      -3.931     -81.982
  C      110.556      -3.796     -83.243
  O      110.830      -0.323     -89.370
  O      109.827      -1.614     -91.339
  H      112.183      -6.693     -87.480
  H      111.597      -0.334     -89.969
  H      109.358      -3.343     -81.546
  H      110.092      -3.072     -83.905
  H      113.134      -4.464     -85.105
  H      110.988      -6.390     -85.454
  H      109.569      -4.824     -86.533
  H      112.072      -3.525     -87.712
  H      111.014      -5.855     -79.364
  H      109.300      -2.469     -86.983
  H      109.778      -4.631     -79.415
  H      110.645      -1.432     -87.423
  P      109.079      -5.970     -88.782
  C      107.516      -3.934     -88.818
  O      108.455      -4.703     -89.543
  O      108.217      -5.997     -87.430
  O      109.025      -7.273     -89.505
  H      107.337      -6.378     -87.601
  H      107.333      -3.003     -89.359
  H      107.901      -3.692     -87.824
  H      106.574      -4.481     -88.731
  H      107.438       0.988     -88.608
  H      108.876       1.320     -89.543
  H      109.012       0.598     -87.957

 3  4  5  6  7  8  9  10  11  12  13  21  23  27  28  29  30  32 0
 6-311+G(2d,p)
 ****
 34  35 0
 6-311+G(2d,p)
 ****
 1  2  14  15  16  17  18  19  20  22  24  25  26 0
 3-21G
 ****
 31  33  36  37  38  39  40  41  42  43  44  45  46 0
 3-21G
 ****


