%nproc=1
%NoSave
%Mem=1900MB
#P OB98/GEN NMR

erre ene a

0 1
  C      330.846    -984.108     -75.663
  O      330.391    -985.426     -75.474
  H      331.090    -983.969     -76.725
  H      331.753    -983.922     -75.080
  H      330.068    -983.383     -75.394
  P      329.819    -985.838     -74.031
  C      332.223    -986.587     -73.489
  O      330.837    -986.908     -73.401
  C      333.035    -987.652     -72.761
  O      332.779    -987.617     -71.348
  C      332.717    -989.080     -73.198
  O      333.269    -989.382     -74.471
  C      333.288    -989.880     -72.040
  O      334.700    -990.055     -72.192
  C      332.983    -988.956     -70.844
  N      331.813    -989.409     -70.078
  C      332.084    -990.177     -68.945
  O      333.208    -990.456     -68.562
  N      330.981    -990.661     -68.285
  C      329.680    -990.580     -68.708
  O      328.772    -991.234     -68.235
  C      329.461    -989.714     -69.898
  C      330.523    -989.191     -70.506
  O      328.378    -986.247     -74.010
  O      330.071    -984.529     -73.140
  H      329.232    -984.039     -73.041
  H      334.973    -990.644     -71.450
  H      331.169    -991.248     -67.485
  H      328.438    -989.556     -70.219
  H      330.388    -988.577     -71.394
  H      333.845    -988.903     -70.167
  H      332.825    -990.864     -71.963
  H      331.630    -989.225     -73.225
  H      334.114    -987.437     -72.919
  H      332.389    -985.613     -73.004
  H      332.515    -986.514     -74.552
  P      332.323    -989.727     -75.710
  C      331.658    -992.142     -75.119
  O      332.412    -991.315     -75.983
  O      332.500    -988.878     -76.910
  O      330.834    -989.573     -75.113
  H      330.309    -989.016     -75.722
  H      331.796    -993.166     -75.396
  H      330.622    -991.888     -75.196
  H      331.986    -991.998     -74.111

 6  7  8  9  10  11  12  13  14  15  16  27  31  32  33  34  35 0
 6-311+G(2d,p)
 ****
 36  37 0
 6-311+G(2d,p)
 ****
 1  2  3  4  5  17  18  19  20  21  22  23  24  25 0
 3-21G
 ****
 26  28  29  30  38  39  40  41  42  43  44  45 0
 3-21G
 ****


