%nproc=1
%NoSave
%Mem=1900MB
#P OB98/GEN NMR

erre ene a

0 1
  C       60.715    -321.113    -163.345
  O       61.451    -319.921    -163.626
  P       60.700    -318.506    -163.551
  C       61.035    -317.551    -165.911
  O       61.426    -317.479    -164.547
  C       62.003    -316.800    -166.840
  O       62.253    -315.453    -166.340
  C       63.369    -317.478    -167.011
  O       63.786    -317.242    -168.360
  C       64.243    -316.707    -166.038
  O       65.625    -316.864    -166.306
  C       63.679    -315.295    -166.225
  N       64.035    -314.403    -165.129
  C       65.249    -313.721    -165.229
  O       66.018    -313.961    -166.163
  N       65.571    -312.809    -164.254
  C       64.818    -312.705    -163.199
  N       65.161    -311.777    -162.267
  C       63.624    -313.542    -162.978
  C       63.281    -314.343    -163.982
  O       60.457    -317.980    -162.172
  O       59.312    -318.800    -164.303
  H       65.834    -317.823    -166.362
  H       58.604    -318.274    -163.876
  H       63.077    -313.482    -162.046
  H       62.419    -314.989    -163.923
  H       64.038    -314.855    -167.163
  H       64.056    -317.065    -165.015
  H       63.344    -318.555    -166.825
  H       61.519    -316.697    -167.819
  H       65.998    -311.227    -162.418
  H       60.032    -317.130    -166.022
  H       64.599    -311.603    -161.441
  H       60.952    -318.604    -166.205
  P       63.267    -318.228    -169.515
  C       65.190    -319.977    -169.379
  O       64.544    -318.973    -170.135
  O       62.892    -317.190    -170.687
  O       62.084    -319.072    -169.181
  H       62.223    -317.602    -171.267
  H       65.835    -320.556    -170.043
  H       64.466    -320.656    -168.920
  H       65.804    -319.516    -168.599
  H       61.360    -321.961    -163.439
  H       59.904    -321.203    -164.037
  H       60.329    -321.067    -162.348

 3  4  5  6  7  8  9  10  11  12  13  23  27  28  29  30  32 0
 6-311+G(2d,p)
 ****
 34  35 0
 6-311+G(2d,p)
 ****
 1  2  14  15  16  17  18  19  20  21  22  24  25  26 0
 3-21G
 ****
 31  33  36  37  38  39  40  41  42  43  44  45  46 0
 3-21G
 ****


