%nproc=1
%NoSave
%Mem=1900MB
#P OB98/GEN NMR

erre ene a

0 1
  C     -894.530    1056.253     112.692
  O     -893.680    1056.361     111.568
  P     -894.360    1056.602     110.125
  C     -892.970    1054.556     109.157
  O     -894.240    1055.163     109.367
  C     -893.070    1053.431     108.116
  O     -893.890    1052.364     108.686
  C     -893.800    1053.846     106.837
  O     -892.950    1054.596     105.967
  C     -894.210    1052.461     106.295
  O     -893.090    1051.842     105.638
  C     -894.560    1051.714     107.587
  N     -896.010    1051.648     107.832
  C     -896.740    1050.958     106.882
  O     -896.270    1050.393     105.888
  N     -898.120    1050.901     107.143
  C     -898.760    1051.539     108.143
  O     -900.000    1051.521     108.278
  C     -897.940    1052.292     109.098
  C     -896.610    1052.308     108.899
  O     -893.270    1057.519     109.413
  O     -895.740    1057.167     110.213
  H     -892.380    1057.368     109.789
  H     -893.510    1051.146     105.043
  H     -898.680    1050.406     106.456
  H     -898.420    1052.803     109.911
  H     -895.970    1052.858     109.586
  H     -894.180    1050.661     107.543
  H     -895.030    1052.519     105.568
  H     -894.700    1054.413     107.067
  H     -892.080    1053.057     107.899
  H     -892.600    1054.148     110.086
  H     -892.270    1055.334     108.805
  P     -893.680    1055.422     104.806
  C     -892.500    1054.329     102.728
  O     -893.660    1054.446     103.515
  O     -892.580    1056.518     104.495
  O     -895.020    1055.936     105.183
  H     -891.660    1056.184     104.480
  H     -892.530    1053.402     102.163
  H     -891.610    1054.266     103.372
  H     -892.400    1055.171     102.052
  H     -893.941    1056.096     113.571
  H     -895.196    1055.427     112.557
  H     -895.097    1057.154     112.799

 3  4  5  6  7  8  9  10  11  12  13  24  28  29  30  31  32 0
 6-311+G(2d,p)
 ****
 33  34 0
 6-311+G(2d,p)
 ****
 1  2  14  15  16  17  18  19  20  21  22  23  25  26  27 0
 3-21G
 ****
 35  36  37  38  39  40  41  42  43  44  45 0
 3-21G
 ****


