%nproc=1
%NoSave
%Mem=1900MB
#P OB98/GEN NMR

erre ene a

0 1
  C     -150.898    -170.997    -161.850
  O     -151.449    -170.039    -162.731
  H     -149.817    -170.844    -161.793
  H     -151.092    -172.005    -162.223
  H     -151.323    -170.885    -160.849
  P     -153.046    -170.011    -162.872
  C     -153.208    -171.054    -165.253
  O     -153.433    -171.218    -163.860
  C     -153.817    -172.232    -166.018
  O     -153.100    -173.441    -165.650
  C     -155.302    -172.461    -165.696
  O     -155.975    -172.887    -166.883
  C     -155.267    -173.595    -164.687
  O     -156.475    -174.343    -164.624
  C     -154.075    -174.411    -165.205
  N     -153.505    -175.287    -164.184
  C     -154.173    -176.477    -163.916
  O     -155.163    -176.880    -164.527
  N     -153.658    -177.226    -162.887
  C     -152.588    -176.898    -162.107
  O     -152.186    -177.597    -161.184
  C     -151.930    -175.623    -162.433
  C     -152.413    -174.887    -163.440
  O     -153.316    -168.707    -163.764
  O     -153.806    -169.997    -161.590
  H     -153.439    -167.926    -163.194
  H     -156.360    -175.048    -163.957
  H     -154.129    -178.095    -162.680
  H     -151.081    -175.323    -161.831
  H     -151.959    -173.935    -163.695
  H     -154.370    -175.003    -166.081
  H     -155.059    -173.202    -163.686
  H     -155.788    -171.574    -165.293
  H     -153.665    -172.077    -167.093
  H     -152.130    -171.022    -165.441
  H     -153.659    -170.114    -165.585
  P     -156.878    -171.800    -167.650
  C     -159.106    -172.814    -166.724
  O     -158.241    -171.691    -166.808
  O     -157.288    -172.605    -168.968
  O     -156.161    -170.510    -167.886
  H     -157.447    -173.549    -168.815
  H     -159.959    -172.564    -166.128
  H     -158.585    -173.633    -166.274
  H     -159.426    -173.092    -167.706

 6  7  8  9  10  11  12  13  14  15  16  27  31  32  33  34  35 0
 6-311+G(2d,p)
 ****
 36  37 0
 6-311+G(2d,p)
 ****
 1  2  3  4  5  17  18  19  20  21  22  23  24  25 0
 3-21G
 ****
 26  28  29  30  38  39  40  41  42  43  44  45 0
 3-21G
 ****


