%nproc=1
%NoSave
%Mem=1900MB
#P OB98/GEN NMR

erre ene a

0 1
  C      890.824     -92.944    -170.646
  O      889.595     -93.368    -170.071
  H      891.497     -93.795    -170.700
  H      891.281     -92.163    -170.035
  H      890.654     -92.565    -171.662
  P      888.429     -92.285    -169.886
  C      888.238     -93.152    -167.451
  O      888.321     -92.018    -168.311
  C      887.960     -92.724    -166.024
  O      889.015     -91.860    -165.554
  C      886.653     -91.948    -165.850
  O      885.558     -92.842    -165.782
  C      886.924     -91.235    -164.535
  O      886.778     -92.160    -163.439
  C      888.409     -90.837    -164.709
  N      890.709     -86.341    -164.243
  C      890.673     -87.418    -163.372
  N      891.308     -87.247    -162.178
  N      890.059     -88.545    -163.623
  C      889.419     -88.535    -164.814
  C      889.366     -87.525    -165.758
  C      890.096     -86.318    -165.478
  O      890.170     -85.337    -166.240
  N      888.541     -87.861    -166.807
  C      888.139     -89.088    -166.526
  N      888.634     -89.531    -165.321
  O      887.113     -92.606    -170.529
  O      889.068     -90.928    -170.453
  H      887.455     -92.848    -163.570
  H      888.847     -90.805    -171.395
  H      891.188     -85.495    -163.973
  H      887.498     -89.689    -167.156
  H      888.951     -90.842    -163.749
  H      886.253     -90.398    -164.352
  H      891.542     -86.337    -161.829
  H      886.518     -91.188    -166.640
  H      891.250     -88.008    -161.516
  H      887.969     -93.618    -165.392
  H      889.186     -93.686    -167.518
  H      887.430     -93.821    -167.801
  P      884.036     -92.301    -165.833
  C      883.757     -93.006    -163.346
  O      883.678     -91.947    -164.304
  O      883.078     -93.215    -166.503
  O      884.154     -90.859    -166.507
  H      884.096     -90.870    -167.496
  H      883.495     -92.632    -162.378
  H      884.755     -93.391    -163.321
  H      883.080     -93.788    -163.622

 6  7  8  9  10  11  12  13  14  15  26  29  33  34 0
 6-311+G(2d,p)
 ****
 36  38  39  40  41 0
 6-311+G(2d,p)
 ****
 1  2  3  4  5  16  17  18  19  20  21  22  23  24  25 0
 3-21G
 ****
 27  28  30  31  32  35  37  42  43  44  45  46  47 0
 3-21G
 ****
 48  49 0
 3-21G
 ****


