%nproc=1
%NoSave
%Mem=1900MB
#P OB98/GEN NMR

erre ene a

0 1
  C     -312.543     240.710    -185.830
  O     -311.837     241.576    -186.690
  H     -312.633     239.733    -186.310
  H     -313.547     241.101    -185.648
  H     -312.012     240.591    -184.881
  P     -311.450     243.026    -186.124
  C     -308.893     242.610    -185.959
  O     -310.108     242.840    -185.262
  C     -308.386     241.191    -185.694
  O     -309.406     240.246    -186.111
  C     -307.095     240.850    -186.439
  O     -306.274     240.046    -185.587
  C     -307.568     240.017    -187.616
  O     -306.558     239.140    -188.112
  C     -308.797     239.315    -187.026
  N     -309.726     238.894    -188.070
  C     -309.254     237.954    -188.990
  O     -308.100     237.528    -188.904
  N     -310.071     237.563    -190.018
  C     -311.230     238.125    -190.166
  N     -311.984     237.716    -191.222
  C     -311.743     239.170    -189.259
  C     -310.951     239.497    -188.239
  O     -312.564     243.300    -185.011
  O     -311.384     244.114    -187.144
  H     -306.911     238.681    -188.905
  H     -312.769     244.252    -184.942
  H     -312.705     239.628    -189.439
  H     -311.240     240.259    -187.526
  H     -308.494     238.432    -186.447
  H     -307.868     240.681    -188.437
  H     -306.534     241.733    -186.757
  H     -308.259     241.065    -184.612
  H     -311.589     237.009    -191.832
  H     -308.141     243.325    -185.611
  H     -312.879     238.115    -191.460
  H     -309.054     242.762    -187.031
  P     -305.528     240.799    -184.385
  C     -306.318     239.451    -182.311
  O     -306.427     240.650    -183.067
  O     -305.672     242.345    -184.772
  O     -304.097     240.402    -184.225
  H     -304.809     242.700    -185.054
  H     -306.974     239.500    -181.467
  H     -305.310     239.333    -181.972
  H     -306.588     238.617    -182.924

 6  7  8  9  10  11  12  13  14  15  16  26  30  31  32  33  35 0
 6-311+G(2d,p)
 ****
 37  38 0
 6-311+G(2d,p)
 ****
 1  2  3  4  5  17  18  19  20  21  22  23  24  25 0
 3-21G
 ****
 27  28  29  34  36  39  40  41  42  43  44  45  46 0
 3-21G
 ****


