%nproc=1
%NoSave
%Mem=1900MB
#P OB98/GEN NMR

erre ene a

0 1
  C      -69.909      24.923      20.789
  O      -68.530      24.615      20.722
  H      -70.399      24.535      19.894
  H      -70.051      26.006      20.830
  H      -70.358      24.456      21.670
  P      -67.627      25.084      21.962
  C      -67.342      27.299      23.292
  O      -67.912      26.649      22.163
  C      -67.027      28.751      22.944
  O      -65.977      28.798      21.950
  C      -68.199      29.506      22.332
  O      -69.137      29.928      23.304
  C      -67.480      30.655      21.643
  O      -67.196      31.720      22.560
  C      -66.177      29.999      21.170
  N      -63.436      29.913      16.865
  C      -63.103      30.203      18.142
  N      -63.891      30.191      19.237
  C      -65.137      29.803      18.918
  C      -65.622      29.472      17.664
  C      -64.708      29.535      16.600
  N      -65.052      29.263      15.297
  N      -66.966      29.164      17.729
  C      -67.286      29.297      19.001
  N      -66.213      29.678      19.757
  O      -66.143      25.040      21.364
  O      -67.757      24.249      23.191
  H      -68.020      31.875      23.061
  H      -65.701      24.219      21.651
  H      -62.069      30.495      18.303
  H      -68.273      29.139      19.417
  H      -65.305      30.643      21.335
  H      -68.085      31.064      20.835
  H      -68.687      28.888      21.567
  H      -66.664      29.258      23.847
  H      -66.416      26.788      23.577
  H      -68.049      27.247      24.126
  H      -64.362      29.395      14.576
  H      -66.024      29.092      15.073
  P      -70.693      29.738      22.969
  C      -72.388      30.818      21.307
  O      -71.073      30.817      21.848
  O      -71.436      30.275      24.282
  O      -71.091      28.339      22.640
  H      -72.239      29.746      24.448
  H      -72.473      31.596      20.577
  H      -73.096      30.986      22.091
  H      -72.585      29.873      20.846

 6  7  8  9  10  11  12  13  14  15  25  28  32  33  34  35 0
 6-311+G(2d,p)
 ****
 36  37  40 0
 6-311+G(2d,p)
 ****
 1  2  3  4  5  16  17  18  19  20  21  22  23  24 0
 3-21G
 ****
 26  27  29  30  31  38  39 41  42  43  44  45  46  47  48 0
 3-21G
 ****


