%nproc=1
%NoSave
%Mem=1900MB
#P OB98/GEN NMR

erre ene a

0 1
  C     -816.197     790.511     125.357
  O     -815.992     790.016     124.043
  H     -815.336     791.127     125.623
  H     -816.281     789.689     126.067
  H     -817.102     791.121     125.385
  P     -817.138     789.042     123.464
  C     -818.364     791.089     122.450
  O     -818.437     789.982     123.336
  C     -819.406     790.946     121.325
  O     -820.713     790.765     121.878
  C     -819.484     792.146     120.390
  O     -818.489     792.074     119.397
  C     -820.877     791.949     119.811
  O     -820.819     790.976     118.741
  C     -821.673     791.392     120.995
  N     -825.513     794.788     120.817
  C     -824.884     794.112     119.839
  N     -823.826     793.266     119.962
  C     -823.451     793.134     121.241
  C     -824.001     793.786     122.340
  C     -825.082     794.635     122.107
  N     -825.741     795.339     123.103
  N     -823.349     793.417     123.499
  C     -822.465     792.523     123.117
  N     -822.458     792.356     121.747
  O     -817.319     787.754     124.176
  O     -816.656     788.906     121.924
  H     -821.721     790.915     118.364
  H     -816.347     789.773     121.591
  H     -825.255     794.270     118.838
  H     -821.797     791.970     123.794
  H     -822.372     790.597     120.679
  H     -821.296     792.865     119.375
  H     -819.452     793.092     120.947
  H     -819.158     790.021     120.773
  H     -817.364     791.165     122.016
  H     -826.375     796.066     122.818
  H     -825.340     795.315     124.023
  H     -818.549     791.995     123.032
  P     -817.815     793.396     118.774
  C     -815.945     793.386     120.549
  O     -817.069     794.084     120.008
  O     -818.763     794.255     118.022
  O     -816.615     792.848     117.875
  H     -816.322     793.530     117.246
  H     -815.536     793.946     121.364
  H     -815.201     793.266     119.790
  H     -816.257     792.424     120.898

 6  7  8  9  10  11  12  13  14  15  25  28  32  33  34  35 0
 6-311+G(2d,p)
 ****
 36  39  40 0
 6-311+G(2d,p)
 ****
 1  2  3  4  5  16  17  18  19  20  21  22  23  24 0
 3-21G
 ****
 26  27  29  30  31  37  38  41  42  43  44  45  46  47 0
 3-21G
 ****
 48 0
 3-21G
 ****


