%nproc=1
%NoSave
%Mem=1900MB
#P OB98/GEN NMR

erre ene a

0 1
  C      368.624    -122.164     -56.372
  O      368.371    -123.554     -56.337
  H      368.350    -121.784     -57.359
  H      369.683    -121.959     -56.199
  H      368.017    -121.649     -55.621
  P      368.798    -124.373     -55.028
  C      366.491    -123.868     -53.974
  O      367.440    -124.863     -54.329
  C      365.786    -124.231     -52.661
  O      364.940    -123.117     -52.258
  C      364.883    -125.474     -52.765
  O      364.868    -126.100     -51.474
  C      363.541    -124.843     -53.071
  O      362.488    -125.758     -52.888
  C      363.590    -123.623     -52.146
  N      362.598    -122.618     -52.493
  C      361.496    -122.515     -51.641
  O      361.393    -123.261     -50.668
  N      360.522    -121.594     -51.927
  C      360.608    -120.886     -53.011
  N      359.601    -120.002     -53.248
  C      361.726    -121.004     -53.969
  C      362.680    -121.876     -53.649
  O      369.760    -123.687     -54.115
  O      369.415    -125.733     -55.608
  H      362.460    -126.079     -51.957
  H      370.388    -125.710     -55.534
  H      361.742    -120.403     -54.869
  H      363.542    -122.033     -54.292
  H      363.436    -123.919     -51.100
  H      363.495    -124.521     -54.115
  H      365.220    -126.183     -53.525
  H      366.543    -124.355     -51.877
  H      358.847    -119.962     -52.572
  H      365.760    -123.806     -54.786
  H      359.549    -119.413     -54.065
  H      366.984    -122.895     -53.869
  P      365.788    -127.362     -51.107
  C      368.169    -126.419     -50.799
  O      366.987    -126.886     -50.156
  O      366.231    -128.154     -52.295
  O      364.885    -128.267     -50.141
  H      365.125    -129.204     -50.265
  H      368.888    -126.133     -50.060
  H      367.932    -125.574     -51.411
  H      368.575    -127.199     -51.409

 6  7  8  9  10  11  12  13  14  15  16  26  30  31  32  33  35 0
 6-311+G(2d,p)
 ****
 37  38 0
 6-311+G(2d,p)
 ****
 1  2  3  4  5  17  18  19  20  21  22  23  24  25 0
 3-21G
 ****
 27  28  29  34  36  39  40  41  42  43  44  45  46 0
 3-21G
 ****


