%nproc=1
%NoSave
%Mem=1900MB
#P OB98/GEN NMR

erre ene a

0 1
  C     -137.341    -474.236    -404.460
  O     -138.621    -474.520    -405.000
  P     -138.996    -473.813    -406.392
  C     -140.727    -472.469    -404.974
  O     -139.763    -472.457    -406.017
  C     -140.609    -471.184    -404.148
  O     -139.232    -470.959    -403.774
  C     -141.063    -469.926    -404.876
  O     -142.475    -469.801    -404.815
  C     -140.318    -468.840    -404.106
  O     -141.004    -468.515    -402.881
  C     -138.973    -469.527    -403.819
  N     -135.892    -465.950    -405.636
  C     -136.948    -465.849    -404.746
  N     -137.179    -464.625    -404.230
  N     -137.695    -466.859    -404.387
  C     -137.356    -468.020    -404.991
  C     -136.347    -468.248    -405.901
  C     -135.489    -467.134    -406.245
  O     -134.487    -467.195    -406.955
  N     -136.320    -469.555    -406.306
  C     -137.290    -470.124    -405.617
  N     -137.935    -469.242    -404.791
  O     -140.134    -474.758    -406.986
  O     -137.848    -473.625    -407.340
  H     -141.892    -468.174    -403.095
  H     -139.767    -475.373    -407.646
  H     -135.340    -465.149    -405.865
  H     -137.552    -471.170    -405.672
  H     -138.573    -469.246    -402.834
  H     -140.235    -467.912    -404.673
  H     -136.657    -463.795    -404.478
  H     -140.721    -469.939    -405.915
  H     -137.948    -464.527    -403.579
  H     -141.184    -471.327    -403.223
  H     -140.550    -473.327    -404.326
  H     -141.725    -472.553    -405.412
  P     -143.296    -469.989    -406.184
  C     -144.508    -467.697    -406.011
  O     -143.615    -468.522    -406.742
  O     -144.716    -470.531    -405.689
  O     -142.659    -470.922    -407.163
  H     -145.061    -471.178    -406.341
  H     -144.233    -466.657    -406.175
  H     -144.473    -467.907    -404.939
  H     -145.527    -467.860    -406.376
  H     -137.217    -474.765    -403.538
  H     -137.254    -473.185    -404.282
  H     -136.585    -474.544    -405.152

 3  4  5  6  7  8  9  10  11  12  23  26  30  31 0
 6-311+G(2d,p)
 ****
 33  35  36  37  38 0
 6-311+G(2d,p)
 ****
 1  2  13  14  15  16  17  18  19  20  21  22  24  25 0
 3-21G
 ****
 27  28  29  32  34  39  40  41  42  43  44  45  46  47  48  49 0
 3-21G
 ****


