%nproc=1
%NoSave
%Mem=1900MB
#P OB98/GEN NMR

erre ene a

0 1
  C      123.880     -69.142    -379.211
  O      125.200     -69.386    -379.648
  H      123.287     -68.779    -380.057
  H      123.879     -68.380    -378.428
  H      123.428     -70.065    -378.833
  P      126.240     -69.925    -378.554
  C      128.239     -68.881    -377.262
  O      127.103     -68.649    -378.092
  C      128.553     -67.633    -376.438
  O      129.099     -66.607    -377.314
  C      127.333     -67.033    -375.724
  O      127.743     -66.548    -374.436
  C      126.971     -65.848    -376.602
  O      126.234     -64.860    -375.889
  C      128.356     -65.398    -377.057
  N      130.022     -61.075    -379.024
  C      130.311     -61.681    -377.821
  N      131.171     -61.034    -377.002
  N      129.794     -62.817    -377.439
  C      128.969     -63.368    -378.363
  C      128.593     -62.863    -379.586
  C      129.154     -61.590    -379.983
  O      128.917     -60.997    -381.032
  N      127.705     -63.709    -380.212
  C      127.548     -64.717    -379.368
  N      128.296     -64.552    -378.238
  O      127.285     -70.779    -379.417
  O      125.647     -70.720    -377.437
  H      126.758     -64.605    -375.098
  H      127.660     -71.511    -378.885
  H      130.438     -60.190    -379.267
  H      126.908     -65.575    -379.535
  H      128.888     -64.830    -376.284
  H      126.368     -66.184    -377.453
  H      131.632     -60.169    -377.245
  H      126.506     -67.736    -375.605
  H      131.408     -61.463    -376.115
  H      129.346     -67.886    -375.720
  H      129.097     -69.125    -377.899
  H      128.031     -69.726    -376.598
  P      127.316     -67.408    -373.152
  C      125.233     -67.671    -371.627
  O      125.820     -66.998    -372.732
  O      128.220     -66.777    -371.980
  O      127.569     -68.871    -373.288
  H      128.920     -67.400    -371.727
  H      124.244     -67.296    -371.466
  H      125.825     -67.503    -370.752
  H      125.188     -68.720    -371.831

 6  7  8  9  10  11  12  13  14  15  26  29  33  34 0
 6-311+G(2d,p)
 ****
 36  38  39  40  41 0
 6-311+G(2d,p)
 ****
 1  2  3  4  5  16  17  18  19  20  21  22  23  24  25 0
 3-21G
 ****
 27  28  30  31  32  35  37  42  43  44  45  46  47 0
 3-21G
 ****
 48  49 0
 3-21G
 ****


