%nproc=1
%NoSave
%Mem=1900MB
#P OB98/GEN NMR

erre ene a

0 1
  C     -158.852     -20.010     190.615
  O     -158.070     -19.912     191.790
  H     -159.216     -19.012     190.354
  H     -159.710     -20.668     190.785
  H     -158.242     -20.389     189.790
  P     -157.464     -21.284     192.365
  C     -157.852     -20.533     194.816
  O     -158.178     -21.465     193.792
  C     -159.090     -20.189     195.638
  O     -160.090     -19.575     194.803
  C     -159.760     -21.387     196.304
  O     -159.111     -21.708     197.520
  C     -161.162     -20.840     196.545
  O     -161.164     -20.030     197.736
  C     -161.398     -19.954     195.306
  N     -165.999     -21.653     193.790
  C     -165.546     -21.253     194.996
  N     -164.301     -20.867     195.339
  C     -163.473     -20.913     194.279
  C     -163.795     -21.307     192.985
  C     -165.129     -21.685     192.755
  N     -165.586     -22.099     191.519
  N     -162.689     -21.233     192.159
  C     -161.740     -20.747     192.928
  N     -162.153     -20.567     194.228
  O     -155.972     -21.386     192.354
  O     -158.228     -22.358     191.456
  H     -160.787     -20.577     198.451
  H     -159.157     -22.102     191.332
  H     -166.284     -21.243     195.792
  H     -160.742     -20.482     192.596
  H     -161.930     -19.029     195.572
  H     -161.897     -21.628     196.692
  H     -159.820     -22.246     195.619
  H     -158.796     -19.443     196.395
  H     -157.431     -19.619     194.374
  H     -166.496     -22.533     191.491
  H     -164.905     -22.246     190.787
  H     -157.085     -20.992     195.454
  P     -158.310     -23.086     197.693
  C     -160.356     -24.009     198.957
  O     -159.450     -24.208     197.876
  O     -157.250     -23.063     198.741
  O     -157.735     -23.395     196.235
  H     -157.021     -24.066     196.290
  H     -161.064     -24.811     198.981
  H     -160.872     -23.081     198.824
  H     -159.812     -23.986     199.878

 6  7  8  9  10  11  12  13  14  15  25  28  32  33  34  35 0
 6-311+G(2d,p)
 ****
 36  39  40 0
 6-311+G(2d,p)
 ****
 1  2  3  4  5  16  17  18  19  20  21  22  23  24 0
 3-21G
 ****
 26  27  29  30  31  37  38  41  42  43  44  45  46  47 0
 3-21G
 ****
 48 0
 3-21G
 ****


