%nproc=1
%NoSave
%Mem=1900MB
#P OB98/GEN NMR

erre ene a

0 1
  C       67.997    -375.286     103.377
  O       68.410    -373.955     103.703
  P       68.638    -373.593     105.238
  C       71.202    -373.587     104.918
  O       70.106    -374.083     105.685
  C       72.523    -374.201     105.412
  O       72.475    -375.645     105.204
  C       73.780    -373.722     104.672
  O       74.446    -372.564     105.161
  C       74.728    -374.901     104.894
  O       75.364    -374.783     106.187
  C       73.801    -376.112     104.885
  N       75.947    -379.883     102.161
  C       76.166    -379.440     103.407
  N       75.562    -378.428     104.066
  C       74.613    -377.864     103.296
  C       74.266    -378.221     101.994
  C       74.986    -379.279     101.425
  N       74.760    -379.736     100.137
  N       73.255    -377.411     101.525
  C       73.003    -376.563     102.510
  N       73.783    -376.816     103.613
  O       67.534    -373.960     106.175
  O       68.822    -371.995     105.191
  H       75.760    -373.898     106.214
  H       68.396    -371.603     105.984
  H       76.957    -379.954     103.970
  H       72.266    -375.780     102.479
  H       74.079    -376.853     105.642
  H       75.532    -374.930     104.148
  H       73.576    -373.609     103.592
  H       72.631    -374.020     106.486
  H       71.251    -372.502     105.007
  H       75.352    -380.466      99.785
  H       74.084    -379.259      99.562
  H       70.996    -373.819     103.865
  P       74.321    -371.144     104.412
  C       72.998    -370.001     106.357
  O       73.011    -370.451     105.022
  O       74.354    -371.218     102.924
  O       75.511    -370.307     105.078
  H       75.381    -370.091     106.009
  H       72.110    -369.372     106.508
  H       73.893    -369.402     106.576
  H       72.949    -370.853     107.047
  H       67.886    -375.375     102.317
  H       67.062    -375.496     103.852
  H       68.734    -375.982     103.718

 3  4  5  6  7  8  9  10  11  12  22  25  29  30  31  32 0
 6-311+G(2d,p)
 ****
 33  36  37 0
 6-311+G(2d,p)
 ****
 1  2  13  14  15  16  17  18  19  20  21  23  24  26 0
 3-21G
 ****
 27  28  34  35  38  39  40  41  42  43  44  45  46  47  48 0
 3-21G
 ****


