%nproc=1
%NoSave
%Mem=1900MB
#P OB98/GEN NMR

erre ene a

0 1
  C      178.271    -341.832     -37.934
  O      177.118    -342.418     -37.359
  P      176.727    -343.928     -37.711
  C      177.270    -344.667     -35.275
  O      176.333    -344.646     -36.332
  C      176.954    -345.794     -34.281
  O      175.647    -345.535     -33.716
  C      176.870    -347.188     -34.896
  O      176.993    -348.156     -33.852
  C      175.455    -347.204     -35.439
  O      174.976    -348.527     -35.658
  C      174.680    -346.383     -34.377
  N      173.614    -345.568     -34.989
  C      172.316    -346.053     -34.890
  O      172.026    -347.067     -34.256
  N      171.369    -345.383     -35.614
  C      171.611    -344.325     -36.444
  O      170.833    -343.938     -37.307
  C      172.948    -343.716     -36.322
  C      173.884    -344.371     -35.631
  O      178.137    -344.582     -38.095
  O      175.730    -344.080     -38.809
  H      174.868    -348.941     -34.771
  H      178.257    -344.576     -39.062
  H      170.457    -345.817     -35.655
  H      173.137    -342.792     -36.847
  H      174.891    -343.974     -35.566
  H      174.214    -347.036     -33.626
  H      175.437    -346.680     -36.403
  H      177.608    -347.380     -35.680
  H      177.685    -345.775     -33.464
  H      177.268    -343.698     -34.770
  H      178.282    -344.811     -35.670
  P      177.856    -349.473     -34.149
  C      178.082    -350.464     -31.792
  O      177.428    -350.550     -33.043
  O      179.324    -349.270     -34.319
  O      177.178    -350.053     -35.487
  H      177.789    -350.674     -35.921
  H      177.406    -350.841     -31.020
  H      178.357    -349.435     -31.552
  H      178.981    -351.089     -31.812
  H      178.371    -340.825     -37.585
  H      178.178    -341.833     -39.000
  H      179.136    -342.395     -37.651

 3  4  5  6  7  8  9  10  11  12  13  23  28  29  30  31  32 0
 6-311+G(2d,p)
 ****
 33  34 0
 6-311+G(2d,p)
 ****
 1  2  14  15  16  17  18  19  20  21  22  24  25  26  27 0
 3-21G
 ****
 35  36  37  38  39  40  41  42  43  44  45 0
 3-21G
 ****


