%nproc=1
%NoSave
%Mem=1900MB
#P OB98/GEN NMR

erre ene a

0 1
  C      -46.027     -25.401     -46.266
  O      -45.816     -24.096     -46.776
  P      -46.761     -23.478     -47.920
  C      -48.094     -22.147     -46.147
  O      -48.137     -23.115     -47.181
  C      -48.921     -20.919     -46.533
  O      -50.219     -21.364     -47.008
  C      -49.162     -19.932     -45.384
  O      -49.168     -18.616     -45.948
  C      -50.547     -20.312     -44.896
  O      -51.185     -19.260     -44.188
  C      -51.222     -20.695     -46.218
  N      -52.391     -21.546     -46.023
  C      -53.642     -21.011     -46.331
  O      -53.755     -19.853     -46.729
  N      -54.751     -21.805     -46.179
  C      -54.631     -22.997     -45.682
  N      -55.752     -23.766     -45.609
  C      -53.341     -23.561     -45.243
  C      -52.275     -22.798     -45.462
  O      -46.910     -24.327     -49.134
  O      -46.145     -22.033     -48.202
  H      -52.122     -19.501     -44.058
  H      -45.402     -22.051     -48.856
  H      -53.296     -24.550     -44.809
  H      -51.285     -23.139     -45.195
  H      -51.509     -19.794     -46.771
  H      -50.474     -21.174     -44.226
  H      -48.392     -19.990     -44.609
  H      -48.422     -20.416     -47.371
  H      -56.579     -23.412     -46.078
  H      -47.055     -21.841     -46.004
  H      -55.689     -24.776     -45.549
  H      -48.458     -22.589     -45.213
  P      -48.824     -17.375     -44.988
  C      -47.352     -15.904     -46.537
  O      -47.405     -16.782     -45.433
  O      -48.457     -18.122     -43.614
  O      -49.923     -16.393     -44.753
  H      -48.620     -17.514     -42.869
  H      -46.313     -15.598     -46.690
  H      -47.952     -15.011     -46.346
  H      -47.706     -16.404     -47.442
  H      -45.292     -25.615     -45.518
  H      -45.944     -26.112     -47.061
  H      -47.004     -25.461     -45.834

 3  4  5  6  7  8  9  10  11  12  13  23  27  28  29  30  32 0
 6-311+G(2d,p)
 ****
 34  35 0
 6-311+G(2d,p)
 ****
 1  2  14  15  16  17  18  19  20  21  22  24  25  26 0
 3-21G
 ****
 31  33  36  37  38  39  40  41  42  43  44  45  46 0
 3-21G
 ****


