%nproc=1
%NoSave
%Mem=1900MB
#P OB98/GEN NMR

erre ene a

0 1
  C      -48.141      25.470    -434.561
  O      -48.661      24.280    -434.005
  H      -47.638      26.049    -433.784
  H      -47.410      25.209    -435.332
  H      -48.934      26.066    -435.019
  P      -49.960      24.413    -433.074
  C      -52.291      25.220    -433.885
  O      -51.232      24.287    -434.049
  C      -53.378      24.979    -434.931
  O      -52.791      25.134    -436.256
  C      -54.025      23.588    -434.863
  O      -55.425      23.724    -435.135
  C      -53.369      22.846    -436.015
  O      -54.174      21.779    -436.511
  C      -53.160      23.973    -437.019
  N      -52.243      23.347    -441.982
  C      -53.256      23.947    -441.321
  N      -53.397      24.121    -439.989
  C      -52.317      23.657    -439.335
  C      -51.209      23.024    -439.869
  C      -51.201      22.857    -441.269
  N      -50.207      22.186    -441.944
  N      -50.339      22.641    -438.865
  C      -50.927      23.010    -437.743
  N      -52.127      23.623    -437.977
  O      -49.941      25.966    -432.678
  O      -49.983      23.532    -431.872
  H      -53.855      21.532    -437.402
  H      -49.397      26.093    -431.880
  H      -54.064      24.331    -441.939
  H      -50.551      22.829    -436.749
  H      -54.070      24.210    -437.586
  H      -52.412      22.428    -435.684
  H      -53.882      23.078    -433.905
  H      -54.139      25.765    -434.825
  H      -51.895      26.233    -434.010
  H      -50.344      22.024    -442.930
  H      -49.485      21.722    -441.415
  H      -52.702      25.124    -432.875
  P      -56.446      23.334    -433.960
  C      -58.374      24.525    -432.679
  O      -57.212      24.662    -433.489
  O      -55.478      23.009    -432.725
  O      -57.329      22.175    -434.285
  H      -55.866      22.315    -432.164
  H      -58.766      25.494    -432.451
  H      -58.118      24.021    -431.771
  H      -59.112      23.957    -433.207

 6  7  8  9  10  11  12  13  14  15  25  28  32  33  34  35 0
 6-311+G(2d,p)
 ****
 36  39  40 0
 6-311+G(2d,p)
 ****
 1  2  3  4  5  16  17  18  19  20  21  22  23  24 0
 3-21G
 ****
 26  27  29  30  31  37  38  41  42  43  44  45  46  47 0
 3-21G
 ****
 48 0
 3-21G
 ****


