%nproc=1
%NoSave
%Mem=1900MB
#P OB98/GEN NMR

erre ene a

0 1
  C     -272.594    -821.749     382.351
  O     -272.321    -820.885     383.445
  H     -273.001    -822.692     382.742
  H     -271.681    -821.960     381.786
  H     -273.341    -821.296     381.693
  P     -271.482    -819.553     383.156
  C     -269.010    -819.069     382.580
  O     -269.944    -820.047     383.018
  C     -267.869    -819.691     381.787
  O     -267.137    -820.650     382.583
  C     -268.341    -820.499     380.571
  O     -268.919    -819.723     379.543
  C     -267.102    -821.350     380.259
  O     -266.128    -820.628     379.499
  C     -266.559    -821.623     381.683
  N     -266.823    -822.986     382.123
  C     -266.444    -824.013     381.246
  O     -265.922    -823.785     380.138
  N     -266.677    -825.279     381.655
  C     -267.307    -825.633     382.820
  O     -267.516    -826.811     383.120
  C     -267.726    -824.530     383.692
  C     -267.464    -823.279     383.314
  O     -271.665    -818.441     384.152
  O     -271.866    -819.156     381.657
  H     -265.526    -821.287     379.111
  H     -271.602    -818.229     381.455
  H     -266.410    -826.035     381.041
  H     -268.239    -824.783     384.616
  H     -267.768    -822.435     383.947
  H     -265.468    -821.458     381.716
  H     -267.353    -822.258     379.710
  H     -269.112    -821.211     380.898
  H     -267.170    -818.900     381.486
  H     -268.592    -818.572     383.472
  H     -269.529    -818.315     381.974
  P     -269.926    -820.304     378.455
  C     -269.706    -821.748     376.286
  O     -269.147    -821.351     377.525
  O     -270.836    -819.315     377.792
  O     -270.850    -821.285     379.373
  H     -271.767    -821.256     378.980
  H     -269.052    -822.446     375.807
  H     -269.832    -820.889     375.660
  H     -270.657    -822.209     376.455

 6  7  8  9  10  11  12  13  14  15  16  26  31  32  33  34  35 0
 6-311+G(2d,p)
 ****
 36  37 0
 6-311+G(2d,p)
 ****
 1  2  3  4  5  17  18  19  20  21  22  23  24  25 0
 3-21G
 ****
 27  28  29  30  38  39  40  41  42  43  44  45 0
 3-21G
 ****


