%nproc=1
%NoSave
%Mem=1900MB
#P OB98/GEN NMR

erre ene a

0 1
  C      439.302     309.840     -40.854
  O      438.708     310.875     -40.096
  H      440.267     310.193     -41.228
  H      438.669     309.580     -41.709
  H      439.470     308.957     -40.232
  P      437.257     310.624     -39.466
  C      438.457     308.802     -38.082
  O      437.295     309.153     -38.823
  C      438.109     307.764     -37.018
  O      439.281     307.418     -36.256
  C      437.064     308.235     -36.005
  O      435.757     308.092     -36.536
  C      437.335     307.271     -34.859
  O      436.770     305.983     -35.169
  C      438.874     307.187     -34.875
  N      441.681     307.834     -30.699
  C      441.061     306.697     -31.182
  N      441.179     305.584     -30.427
  N      440.375     306.658     -32.295
  C      440.281     307.864     -32.905
  C      440.836     309.063     -32.517
  C      441.651     309.071     -31.317
  O      442.238     310.054     -30.868
  N      440.449     310.087     -33.338
  C      439.702     309.500     -34.253
  N      439.561     308.152     -34.032
  O      436.093     310.857     -40.382
  O      437.212     311.581     -38.181
  H      437.089     305.359     -34.492
  H      436.830     312.452     -38.404
  H      442.190     307.800     -29.831
  H      439.241     310.002     -35.100
  H      439.234     306.197     -34.585
  H      436.895     307.599     -33.920
  H      441.565     305.585     -29.492
  H      437.262     309.256     -35.664
  H      440.678     304.756     -30.739
  H      437.778     306.854     -37.530
  H      438.840     309.714     -37.620
  H      439.230     308.398     -38.749
  P      434.452     308.394     -35.647
  C      434.725     310.952     -35.893
  O      434.692     309.843     -35.016
  O      434.110     307.327     -34.661
  O      433.303     308.682     -36.720
  H      432.861     307.861     -37.045
  H      434.892     311.847     -35.330
  H      433.791     311.025     -36.410
  H      435.516     310.823     -36.602

 6  7  8  9  10  11  12  13  14  15  26  29  33  34 0
 6-311+G(2d,p)
 ****
 36  38  39  40  41 0
 6-311+G(2d,p)
 ****
 1  2  3  4  5  16  17  18  19  20  21  22  23  24  25 0
 3-21G
 ****
 27  28  30  31  32  35  37  42  43  44  45  46  47 0
 3-21G
 ****
 48  49 0
 3-21G
 ****


