%nproc=1
%NoSave
%Mem=1900MB
#P OB98/GEN NMR

erre ene a

0 1
  C      378.675    -891.640     940.791
  O      379.851    -891.180     940.157
  H      377.855    -891.630     940.061
  H      378.415    -890.980     941.625
  H      378.801    -892.660     941.155
  P      381.200    -891.100     941.029
  C      382.434    -892.890     939.616
  O      381.849    -892.550     940.878
  C      383.941    -892.770     939.683
  O      384.481    -893.460     940.845
  C      384.708    -893.380     938.495
  O      384.592    -892.630     937.302
  C      386.109    -893.410     939.065
  O      386.656    -892.070     939.014
  C      385.840    -893.870     940.504
  N      385.998    -895.320     940.677
  C      387.047    -895.750     941.493
  O      387.781    -894.930     942.039
  N      387.248    -897.110     941.657
  C      386.478    -897.960     941.027
  N      386.724    -899.260     941.238
  C      385.376    -897.530     940.147
  C      385.202    -896.210     940.015
  O      381.056    -890.600     942.411
  O      382.193    -890.210     940.121
  H      386.690    -891.800     938.063
  H      383.045    -890.110     940.626
  H      384.788    -898.290     939.617
  H      384.397    -895.830     939.391
  H      386.509    -893.350     941.208
  H      386.796    -894.060     938.498
  H      384.361    -894.430     938.326
  H      384.198    -891.700     939.800
  H      387.517    -899.510     941.834
  H      382.013    -892.230     938.864
  H      386.221    -900.000     940.715
  H      382.177    -893.940     939.374
  P      384.277    -893.430     935.933
  C      381.829    -892.560     935.609
  O      382.669    -893.640     935.929
  O      384.850    -894.900     936.255
  O      384.830    -892.850     934.692
  H      385.736    -895.020     935.872
  H      380.808    -892.876     935.655
  H      382.051    -892.216     934.620
  H      381.988    -891.765     936.307

 6  7  8  9  10  11  12  13  14  15  16  26  30  31  32  33  35 0
 6-311+G(2d,p)
 ****
 37  38 0
 6-311+G(2d,p)
 ****
 1  2  3  4  5  17  18  19  20  21  22  23  24  25 0
 3-21G
 ****
 27  28  29  34  36  39  40  41  42  43  44  45  46 0
 3-21G
 ****


