%nproc=1
%NoSave
%Mem=1900MB
#P OB98/GEN NMR

erre ene a

0 1
  C      -52.495    -398.766       5.480
  O      -51.224    -398.180       5.676
  H      -52.449    -399.818       5.778
  H      -52.779    -398.714       4.427
  H      -53.254    -398.264       6.091
  P      -51.059    -396.599       5.493
  C      -48.891    -396.717       6.891
  O      -49.507    -396.267       5.692
  C      -47.451    -397.165       6.626
  O      -47.478    -398.377       5.815
  C      -46.592    -396.122       5.867
  O      -45.240    -396.303       6.296
  C      -46.787    -396.585       4.436
  O      -45.898    -395.973       3.539
  C      -46.668    -398.108       4.641
  N      -47.096    -398.926       3.511
  C      -46.364    -400.072       3.230
  O      -45.379    -400.447       3.869
  N      -46.795    -400.809       2.155
  C      -47.872    -400.524       1.376
  O      -48.236    -401.240       0.441
  C      -48.611    -399.288       1.716
  C      -48.201    -398.568       2.757
  O      -51.998    -395.753       6.291
  O      -51.273    -396.383       3.916
  H      -52.170    -396.048       3.750
  H      -46.029    -396.354       2.644
  H      -46.272    -401.645       1.944
  H      -49.468    -399.028       1.115
  H      -48.720    -397.658       3.043
  H      -45.636    -398.364       4.905
  H      -47.798    -396.319       4.093
  H      -46.906    -395.094       6.060
  H      -46.983    -397.432       7.586
  H      -49.477    -397.567       7.277
  H      -48.906    -395.915       7.633
  P      -44.486    -395.307       7.294
  C      -43.225    -397.267       8.418
  O      -43.116    -396.001       7.772
  O      -45.337    -394.819       8.430
  O      -43.993    -394.081       6.374
  H      -43.907    -393.279       6.929
  H      -42.249    -397.617       8.684
  H      -43.687    -397.968       7.754
  H      -43.821    -397.167       9.301

 6  7  8  9  10  11  12  13  14  15  16  27  31  32  33  34  35 0
 6-311+G(2d,p)
 ****
 36  37 0
 6-311+G(2d,p)
 ****
 1  2  3  4  5  17  18  19  20  21  22  23  24  25 0
 3-21G
 ****
 26  28  29  30  38  39  40  41  42  43  44  45 0
 3-21G
 ****


