%nproc=1
%NoSave
%Mem=1900MB
#P OB98/GEN NMR

erre ene a

0 1
  C      149.560     319.161     239.729
  O      148.735     320.000     240.521
  P      147.363     320.521     239.865
  C      146.537     318.105     239.382
  O      146.886     319.376     238.846
  C      145.405     317.455     238.581
  O      145.201     316.107     239.065
  C      144.071     318.199     238.674
  O      143.434     318.112     237.399
  C      143.281     317.382     239.678
  O      141.873     317.551     239.506
  C      143.803     315.967     239.390
  N      143.605     315.063     240.519
  C      142.434     314.298     240.518
  O      141.594     314.460     239.634
  N      142.223     313.409     241.542
  C      143.055     313.369     242.537
  N      142.805     312.469     243.527
  C      144.235     314.248     242.638
  C      144.460     315.048     241.597
  O      147.850     321.696     238.898
  O      146.339     320.982     240.850
  H      141.417     316.987     240.166
  H      147.173     322.396     238.832
  H      144.876     314.199     243.507
  H      145.315     315.707     241.571
  H      143.301     315.539     238.511
  H      143.543     317.688     240.698
  H      144.187     319.250     238.957
  H      145.724     317.381     237.536
  H      141.980     311.890     243.444
  H      146.195     318.236     240.413
  H      143.395     312.367     244.342
  H      147.421     317.459     239.395
  P      142.669     319.415     236.860
  C      144.873     320.706     236.605
  O      143.619     320.645     237.255
  O      141.490     319.561     237.937
  O      142.130     319.394     235.469
  H      140.901     320.295     237.681
  H      145.353     321.654     236.860
  H      144.747     320.658     235.520
  H      145.510     319.887     236.948
  H      150.433     318.891     240.286
  H      149.850     319.682     238.841
  H      149.019     318.277     239.463

 3  4  5  6  7  8  9  10  11  12  13  21  23  27  28  29  30  32 0
 6-311+G(2d,p)
 ****
 34  35 0
 6-311+G(2d,p)
 ****
 1  2  14  15  16  17  18  19  20  22  24  25  26 0
 3-21G
 ****
 31  33  36  37  38  39  40  41  42  43  44  45  46 0
 3-21G
 ****


