%nproc=1
%NoSave
%Mem=1900MB
#P OB98/GEN NMR

erre ene a

0 1
  C     -393.250     -79.919     183.887
  O     -393.061     -78.526     184.004
  H     -392.650     -80.421     184.652
  H     -392.913     -80.261     182.903
  H     -394.300     -80.183     184.034
  P     -393.970     -77.578     183.078
  C     -392.384     -76.496     181.327
  O     -393.024     -76.375     182.590
  C     -391.489     -75.283     181.066
  O     -390.302     -75.390     181.893
  C     -391.039     -75.157     179.609
  O     -391.028     -73.770     179.253
  C     -389.613     -75.686     179.628
  O     -388.817     -75.162     178.561
  C     -389.153     -75.283     181.034
  N     -388.048     -76.122     181.494
  C     -386.758     -75.691     181.176
  O     -386.594     -74.659     180.524
  N     -385.688     -76.469     181.542
  C     -385.896     -77.615     182.107
  N     -384.793     -78.355     182.423
  C     -387.244     -78.145     182.404
  C     -388.260     -77.351     182.078
  O     -394.951     -76.872     184.126
  O     -394.707     -78.271     181.983
  H     -389.353     -75.185     177.741
  H     -395.821     -76.682     183.720
  H     -387.363     -79.120     182.848
  H     -389.287     -77.651     182.253
  H     -388.825     -74.234     181.045
  H     -389.625     -76.777     179.530
  H     -391.673     -75.706     178.912
  H     -392.026     -74.381     181.391
  H     -383.891     -77.967     182.186
  H     -393.146     -76.552     180.545
  H     -384.839     -79.286     182.819
  H     -391.793     -77.417     181.308
  P     -391.117     -73.430     177.689
  C     -388.883     -72.113     177.480
  O     -390.305     -72.068     177.428
  O     -392.644     -73.005     177.488
  O     -390.733     -74.573     176.802
  H     -393.118     -73.702     176.996
  H     -388.488     -71.137     177.287
  H     -388.521     -72.797     176.741
  H     -388.572     -72.439     178.451

 6  7  8  9  10  11  12  13  14  15  16  26  30  31  32  33  35 0
 6-311+G(2d,p)
 ****
 37  38 0
 6-311+G(2d,p)
 ****
 1  2  3  4  5  17  18  19  20  21  22  23  24  25 0
 3-21G
 ****
 27  28  29  34  36  39  40  41  42  43  44  45  46 0
 3-21G
 ****


