%nproc=1
%NoSave
%Mem=1900MB
#P OB98/GEN NMR

erre ene a

0 1
  C       -7.784      22.090      31.085
  O       -8.434      22.408      29.871
  H       -6.794      21.687      30.857
  H       -8.347      21.340      31.646
  H       -7.661      22.992      31.692
  P       -9.996      22.776      29.924
  C      -10.693      20.543      28.831
  O      -10.768      21.368      29.992
  C      -11.311      19.169      29.096
  O      -10.588      18.492      30.144
  C      -12.751      19.227      29.581
  O      -13.673      19.656      28.602
  C      -12.931      17.867      30.239
  O      -13.309      16.842      29.326
  C      -11.509      17.585      30.782
  N      -11.450      17.683      32.235
  C      -11.995      16.613      32.937
  O      -12.522      15.642      32.394
  N      -11.956      16.712      34.300
  C      -11.481      17.775      35.010
  O      -11.512      17.821      36.234
  C      -10.941      18.888      34.213
  C      -10.949      18.793      32.881
  O      -10.488      23.684      28.838
  O      -10.196      23.368      31.396
  H      -13.609      16.080      29.859
  H      -11.041      23.872      31.465
  H      -12.337      15.942      34.825
  H      -10.559      19.750      34.743
  H      -10.558      19.603      32.271
  H      -11.191      16.573      30.502
  H      -13.695      17.899      31.019
  H      -12.807      19.967      30.388
  H      -11.226      18.570      28.182
  H       -9.635      20.419      28.579
  H      -11.200      21.036      27.996
  P      -15.088      20.309      28.955
  C      -16.480      18.118      28.852
  O      -15.997      19.186      29.659
  O      -15.707      21.178      27.910
  O      -14.696      21.257      30.201
  H      -15.262      22.051      30.153
  H      -17.065      17.454      29.453
  H      -15.652      17.585      28.433
  H      -17.086      18.513      28.063

 6  7  8  9  10  11  12  13  14  15  16  26  31  32  33  34  35 0
 6-311+G(2d,p)
 ****
 36  37 0
 6-311+G(2d,p)
 ****
 1  2  3  4  5  17  18  19  20  21  22  23  24  25 0
 3-21G
 ****
 27  28  29  30  38  39  40  41  42  43  44  45 0
 3-21G
 ****


