%nproc=1
%NoSave
%Mem=1900MB
#P OB98/GEN NMR

erre ene a

0 1
  C     -647.304     -14.793     690.269
  O     -648.410     -14.018     689.855
  H     -647.358     -15.770     689.780
  H     -647.331     -14.937     691.356
  H     -646.358     -14.315     689.990
  P     -648.399     -12.443     690.165
  C     -649.510     -11.775     687.919
  O     -649.623     -11.803     689.340
  C     -650.016     -10.434     687.360
  O     -651.456     -10.351     687.564
  C     -649.385      -9.247     688.107
  O     -649.297      -8.076     687.293
  C     -650.393      -8.991     689.231
  O     -650.329      -7.656     689.738
  C     -651.712      -9.320     688.532
  N     -655.955      -8.087     691.081
  C     -655.099      -7.270     690.395
  N     -655.402      -5.940     690.377
  N     -654.004      -7.699     689.788
  C     -653.801      -9.040     689.954
  C     -654.572      -9.942     690.618
  C     -655.792      -9.463     691.254
  O     -656.582     -10.143     691.896
  N     -654.031     -11.206     690.565
  C     -652.924     -11.069     689.877
  N     -652.751      -9.759     689.450
  O     -647.121     -11.905     689.359
  O     -648.341     -12.061     691.612
  H     -649.424      -7.517     690.102
  H     -646.825     -11.064     689.731
  H     -656.792      -7.713     691.492
  H     -652.227     -11.851     689.632
  H     -652.099      -8.450     687.997
  H     -650.156      -9.665     690.053
  H     -656.094      -5.553     690.989
  H     -648.402      -9.471     688.514
  H     -654.627      -5.311     690.165
  H     -649.838     -10.389     686.287
  H     -650.117     -12.600     687.539
  H     -648.481     -11.950     687.621
  P     -647.870      -7.688     686.683
  C     -649.062      -5.748     685.288
  O     -647.945      -6.215     686.033
  O     -647.708      -8.653     685.430
  O     -646.744      -7.820     687.653
  H     -646.974      -9.269     685.569
  H     -648.879      -4.746     684.961
  H     -649.936      -5.768     685.905
  H     -649.212      -6.379     684.437

 6  7  8  9  10  11  12  13  14  15  26  29  33  34 0
 6-311+G(2d,p)
 ****
 36  38  39  40  41 0
 6-311+G(2d,p)
 ****
 1  2  3  4  5  16  17  18  19  20  21  22  23  24  25 0
 3-21G
 ****
 27  28  30  31  32  35  37  42  43  44  45  46  47 0
 3-21G
 ****
 48  49 0
 3-21G
 ****


