%nproc=1
%NoSave
%Mem=1900MB
#P OB98/GEN NMR

erre ene a

0 1
  C     -179.087     435.914     287.335
  O     -177.800     435.432     287.732
  P     -177.560     433.954     288.309
  C     -175.147     433.881     287.397
  O     -175.989     433.718     288.533
  C     -173.864     433.054     287.517
  O     -173.004     433.596     288.537
  C     -174.080     431.594     287.901
  O     -174.552     430.839     286.801
  C     -172.686     431.210     288.389
  O     -171.824     430.877     287.291
  C     -172.221     432.509     289.079
  N     -172.328     432.449     290.529
  C     -171.274     431.827     291.207
  O     -170.346     431.308     290.579
  N     -171.311     431.778     292.580
  C     -172.345     432.242     293.213
  N     -172.323     432.173     294.570
  C     -173.515     432.830     292.529
  C     -173.437     432.899     291.204
  O     -178.228     432.878     287.514
  O     -178.142     433.993     289.801
  H     -171.824     431.652     286.697
  H     -178.484     433.107     290.031
  H     -174.369     433.176     293.093
  H     -174.251     433.320     290.624
  H     -171.179     432.732     288.811
  H     -172.701     430.349     289.062
  H     -174.788     431.535     288.739
  H     -173.333     433.119     286.559
  H     -171.504     431.774     295.007
  H     -174.882     434.943     287.314
  H     -173.071     432.510     295.160
  H     -175.704     433.592     286.501
  P     -175.828     429.887     286.982
  C     -177.138     430.258     284.804
  O     -176.272     429.395     285.528
  O     -176.926     430.428     287.833
  O     -175.216     428.553     287.626
  H     -175.887     428.145     288.209
  H     -177.045     430.037     283.735
  H     -176.880     431.309     284.977
  H     -178.170     430.083     285.112
  H     -178.998     436.921     286.985
  H     -179.753     435.884     288.172
  H     -179.473     435.297     286.551

 3  4  5  6  7  8  9  10  11  12  13  23  27  28  29  30  32 0
 6-311+G(2d,p)
 ****
 34  35 0
 6-311+G(2d,p)
 ****
 1  2  14  15  16  17  18  19  20  21  22  24  25  26 0
 3-21G
 ****
 31  33  36  37  38  39  40  41  42  43  44  45  46 0
 3-21G
 ****


