%nproc=1
%NoSave
%Mem=1900MB
#P OB98/GEN NMR

erre ene a

0 1
  C      231.752     618.263     314.422
  O      230.455     618.717     314.793
  P      229.171     617.936     314.240
  C      227.442     618.169     312.336
  O      228.549     618.763     313.008
  C      226.889     619.107     311.245
  O      226.221     620.246     311.864
  C      227.982     619.653     310.307
  O      227.675     619.479     308.927
  C      228.171     621.088     310.778
  O      228.711     621.930     309.763
  C      226.769     621.439     311.303
  N      226.835     622.539     312.274
  C      226.772     623.836     311.770
  O      226.740     624.085     310.566
  N      226.795     624.852     312.690
  C      226.946     624.701     314.038
  O      227.008     625.644     314.824
  C      227.075     623.320     314.525
  C      227.016     622.320     313.627
  O      228.175     617.494     315.275
  O      229.808     616.659     313.502
  H      229.647     621.684     309.621
  H      229.230     615.882     313.678
  H      226.728     625.792     312.323
  H      227.227     623.158     315.570
  H      227.119     621.286     313.947
  H      226.117     621.778     310.485
  H      228.870     621.090     311.619
  H      228.927     619.107     310.444
  H      226.137     618.547     310.671
  H      226.648     617.958     313.051
  H      227.738     617.194     311.925
  P      228.726     619.017     307.810
  C      230.714     620.110     306.556
  O      229.566     620.305     307.358
  O      228.167     618.204     306.688
  O      229.789     618.145     308.651
  H      230.044     617.367     308.122
  H      231.362     620.988     306.649
  H      230.409     619.997     305.509
  H      231.282     619.215     306.868
  H      232.492     618.890     314.873
  H      231.853     618.302     313.357
  H      231.886     617.256     314.756

 3  4  5  6  7  8  9  10  11  12  13  23  28  29  30  31  32 0
 6-311+G(2d,p)
 ****
 33  34 0
 6-311+G(2d,p)
 ****
 1  2  14  15  16  17  18  19  20  21  22  24  25  26  27 0
 3-21G
 ****
 35  36  37  38  39  40  41  42  43  44  45 0
 3-21G
 ****


