%nproc=1
%NoSave
%Mem=1900MB
#P OB98/GEN NMR

erre ene a

0 1
  C      142.873      12.797     -37.835
  O      143.075      13.821     -36.884
  H      141.917      12.967     -38.337
  H      142.841      11.824     -37.338
  H      143.671      12.809     -38.582
  P      144.445      13.781     -36.040
  C      146.366      14.757     -37.504
  O      145.307      15.025     -36.591
  C      146.856      16.057     -38.148
  O      145.824      16.572     -39.028
  C      147.194      17.151     -37.131
  O      148.410      17.798     -37.513
  C      146.020      18.113     -37.216
  O      146.380      19.439     -36.830
  C      145.582      17.949     -38.676
  N      144.173      18.301     -38.867
  C      143.859      19.664     -38.867
  O      144.748      20.505     -38.703
  N      142.549      20.042     -38.999
  C      141.620      19.136     -39.062
  N      140.335      19.577     -39.171
  C      141.899      17.687     -39.018
  C      143.183      17.344     -38.923
  O      145.197      12.505     -36.640
  O      144.279      13.748     -34.558
  H      146.959      19.812     -37.533
  H      145.958      12.233     -36.072
  H      141.090      16.972     -39.055
  H      143.483      16.302     -38.881
  H      146.194      18.578     -39.340
  H      145.222      17.771     -36.546
  H      147.304      16.767     -36.115
  H      147.721      15.824     -38.782
  H      140.181      20.576     -39.189
  H      146.004      14.077     -38.278
  H      139.531      18.963     -39.200
  H      147.192      14.280     -36.964
  P      149.636      17.658     -36.486
  C      150.611      15.525     -37.599
  O      150.822      16.887     -37.249
  O      149.108      16.587     -35.418
  O      150.034      18.948     -35.847
  H      148.784      17.038     -34.616
  H      151.479      15.146     -38.097
  H      149.765      15.451     -38.250
  H      150.430      14.953     -36.713

 6  7  8  9  10  11  12  13  14  15  16  26  30  31  32  33  35 0
 6-311+G(2d,p)
 ****
 37  38 0
 6-311+G(2d,p)
 ****
 1  2  3  4  5  17  18  19  20  21  22  23  24  25 0
 3-21G
 ****
 27  28  29  34  36  39  40  41  42  43  44  45  46 0
 3-21G
 ****


