%nproc=1
%NoSave
%Mem=1900MB
#P OB98/GEN NMR

erre ene a

0 1
  C     -241.775     117.678      76.407
  O     -242.921     116.999      75.928
  H     -242.025     118.164      77.354
  H     -241.464     118.438      75.688
  H     -240.959     116.971      76.576
  P     -242.746     116.183      74.559
  C     -243.240     118.099      72.861
  O     -242.270     117.255      73.464
  C     -242.750     118.566      71.484
  O     -241.574     119.410      71.673
  C     -242.335     117.416      70.554
  O     -242.572     117.818      69.194
  C     -240.837     117.345      70.799
  O     -240.201     116.616      69.775
  C     -240.518     118.835      70.875
  N     -235.583     119.637      69.868
  C     -236.654     119.474      69.062
  N     -237.943     119.275      69.409
  C     -238.075     119.276      70.747
  C     -237.079     119.424      71.696
  C     -235.775     119.607      71.210
  N     -234.676     119.746      72.024
  N     -237.608     119.340      72.970
  C     -238.901     119.151      72.792
  N     -239.227     119.109      71.466
  O     -244.256     115.854      74.137
  O     -241.905     114.955      74.643
  H     -240.203     117.116      68.934
  H     -244.513     114.978      74.482
  H     -236.450     119.511      67.995
  H     -239.637     119.031      73.574
  H     -240.537     119.316      69.891
  H     -240.614     116.844      71.746
  H     -242.861     116.481      70.757
  H     -243.520     119.196      71.024
  H     -243.408     118.961      73.513
  H     -244.179     117.545      72.743
  H     -233.768     119.846      71.597
  H     -234.795     119.692      73.028
  P     -243.723     117.076      68.352
  C     -242.034     115.498      67.139
  O     -243.231     115.622      67.890
  O     -243.700     117.895      66.970
  O     -245.089     117.126      68.951
  H     -244.613     118.110      66.697
  H     -241.857     114.466      66.917
  H     -241.215     115.886      67.707
  H     -242.127     116.048      66.226

 6  7  8  9  10  11  12  13  14  15  25  28  32  33  34  35 0
 6-311+G(2d,p)
 ****
 36  37  40 0
 6-311+G(2d,p)
 ****
 1  2  3  4  5  16  17  18  19  20  21  22  23  24 0
 3-21G
 ****
 26  27  29  30  31  38  39 41  42  43  44  45  46  47  48 0
 3-21G
 ****


