%nproc=1
%NoSave
%Mem=1900MB
#P OB98/GEN NMR

erre ene a

0 1
  C      -27.032     200.690    -223.127
  O      -27.856     201.578    -222.377
  P      -27.953     201.599    -220.784
  C      -30.535     202.048    -220.684
  O      -29.220     202.487    -220.372
  C      -31.606     203.130    -220.443
  O      -31.657     203.452    -219.027
  C      -31.234     204.424    -221.167
  O      -31.546     204.587    -222.536
  C      -31.767     205.533    -220.272
  O      -33.072     205.967    -220.660
  C      -31.811     204.878    -218.888
  N      -30.694     208.199    -215.160
  C      -31.868     208.045    -215.869
  N      -32.860     208.921    -215.589
  N      -32.048     207.132    -216.783
  C      -30.948     206.384    -217.027
  C      -29.724     206.451    -216.406
  C      -29.552     207.430    -215.352
  O      -28.538     207.600    -214.686
  N      -28.838     205.545    -216.932
  C      -29.522     204.947    -217.888
  N      -30.812     205.416    -217.983
  O      -26.678     201.870    -220.062
  O      -28.407     200.095    -220.421
  H      -33.028     206.269    -221.586
  H      -28.003     199.882    -219.557
  H      -30.616     208.905    -214.448
  H      -29.131     204.168    -218.533
  H      -32.786     205.037    -218.408
  H      -31.117     206.416    -220.323
  H      -32.744     209.718    -214.984
  H      -30.138     204.513    -221.121
  H      -33.637     208.953    -216.252
  H      -32.601     202.758    -220.703
  H      -30.735     201.169    -220.061
  H      -30.582     201.710    -221.720
  P      -30.579     204.269    -223.773
  C      -31.459     206.058    -225.383
  O      -31.352     204.672    -225.118
  O      -30.562     202.669    -223.848
  O      -29.195     204.811    -223.649
  H      -29.812     202.363    -224.391
  H      -32.242     206.218    -226.125
  H      -30.508     206.428    -225.780
  H      -31.714     206.611    -224.472
  H      -27.155     200.886    -224.172
  H      -27.315     199.679    -222.918
  H      -26.008     200.838    -222.854

 3  4  5  6  7  8  9  10  11  12  23  26  30  31 0
 6-311+G(2d,p)
 ****
 33  35  36  37  38 0
 6-311+G(2d,p)
 ****
 1  2  13  14  15  16  17  18  19  20  21  22  24  25 0
 3-21G
 ****
 27  28  29  32  34  39  40  41  42  43  44  45  46  47  48  49 0
 3-21G
 ****


