%nproc=1
%NoSave
%Mem=1900MB
#P OB98/GEN NMR

erre ene a

0 1
  C     -145.808     244.971      98.088
  O     -146.545     243.978      98.772
  H     -146.122     244.977      97.040
  H     -144.739     244.748      98.129
  H     -146.003     245.958      98.517
  P     -146.268     243.762     100.339
  C     -144.445     242.461     101.647
  O     -145.024     242.741     100.381
  C     -144.140     240.971     101.769
  O     -145.350     240.183     101.753
  C     -143.296     240.394     100.636
  O     -141.929     240.768     100.693
  C     -143.499     238.912     100.888
  O     -142.704     238.499     102.015
  C     -145.009     238.871     101.219
  N     -145.833     238.561     100.052
  C     -145.673     237.290      99.489
  O     -144.864     236.491      99.963
  N     -146.410     236.957      98.377
  C     -147.221     237.827      97.858
  N     -147.918     237.450      96.751
  C     -147.404     239.187      98.403
  C     -146.694     239.481      99.489
  O     -147.449     243.368     101.167
  O     -145.579     245.125     100.816
  H     -141.808     238.862     101.877
  H     -145.396     245.048     101.786
  H     -148.070     239.884      97.916
  H     -146.771     240.463      99.948
  H     -145.217     238.137     102.009
  H     -143.208     238.286     100.040
  H     -143.726     240.643      99.658
  H     -143.663     240.811     102.746
  H     -147.768     236.515      96.398
  H     -145.148     242.784     102.422
  H     -148.514     238.086      96.235
  H     -143.510     243.016     101.763
  P     -141.198     241.074      99.290
  C     -140.815     239.671      97.118
  O     -141.147     239.682      98.498
  O     -139.683     241.334      99.724
  O     -141.779     242.208      98.505
  H     -139.501     242.292      99.780
  H     -140.829     238.664      96.756
  H     -139.838     240.085      96.983
  H     -141.528     240.255      96.575

 6  7  8  9  10  11  12  13  14  15  16  26  30  31  32  33  35 0
 6-311+G(2d,p)
 ****
 37  38 0
 6-311+G(2d,p)
 ****
 1  2  3  4  5  17  18  19  20  21  22  23  24  25 0
 3-21G
 ****
 27  28  29  34  36  39  40  41  42  43  44  45  46 0
 3-21G
 ****


