%nproc=1
%NoSave
%Mem=1900MB
#P OB98/GEN NMR

erre ene a

0 1
  C     -153.541      44.435     102.391
  O     -153.947      43.260     101.715
  H     -152.494      44.635     102.148
  H     -153.627      44.289     103.470
  H     -154.142      45.297     102.081
  P     -155.506      42.888     101.665
  C     -154.983      40.796     100.242
  O     -155.576      41.300     101.432
  C     -154.521      39.349     100.456
  O     -153.395      39.358     101.387
  C     -155.617      38.439     101.057
  O     -155.458      37.119     100.527
  C     -155.245      38.454     102.528
  O     -155.801      37.366     103.226
  C     -153.721      38.445     102.447
  N     -153.115      38.828     103.720
  C     -152.704      37.798     104.561
  O     -152.841      36.603     104.286
  N     -152.197      38.173     105.772
  C     -152.165      39.452     106.259
  O     -151.771      39.721     107.388
  C     -152.662      40.497     105.351
  C     -153.100      40.146     104.141
  O     -156.341      43.693     100.720
  O     -155.994      43.027     103.181
  H     -155.537      37.402     104.163
  H     -156.966      43.146     103.217
  H     -151.886      37.437     106.386
  H     -152.658      41.520     105.713
  H     -153.490      40.891     103.451
  H     -153.353      37.453     102.159
  H     -155.606      39.379     103.000
  H     -156.628      38.800     100.866
  H     -154.154      38.945      99.508
  H     -154.120      41.425      99.994
  H     -155.705      40.843      99.423
  P     -156.505      36.490      99.486
  C     -154.722      35.148      98.205
  O     -155.961      35.086      98.909
  O     -156.962      37.446      98.423
  O     -157.757      36.053     100.395
  H     -158.583      36.347      99.965
  H     -154.454      34.169      97.867
  H     -153.960      35.521      98.857
  H     -154.822      35.801      97.363

 6  7  8  9  10  11  12  13  14  15  16  26  31  32  33  34  35 0
 6-311+G(2d,p)
 ****
 36  37 0
 6-311+G(2d,p)
 ****
 1  2  3  4  5  17  18  19  20  21  22  23  24  25 0
 3-21G
 ****
 27  28  29  30  38  39  40  41  42  43  44  45 0
 3-21G
 ****


