%nproc=1
%NoSave
%Mem=1900MB
#P OB98/GEN NMR

erre ene a

0 1
  C     -514.366     321.708    -318.971
  O     -514.764     323.072    -318.937
  P     -514.157     324.142    -319.987
  C     -512.393     325.824    -319.077
  O     -512.698     324.463    -319.411
  C     -513.086     326.220    -317.791
  O     -512.793     325.234    -316.754
  C     -512.649     327.554    -317.234
  O     -513.235     328.634    -317.944
  C     -513.106     327.418    -315.773
  O     -514.528     327.658    -315.652
  C     -512.800     325.924    -315.503
  N     -511.544     325.739    -314.756
  C     -511.485     326.281    -313.467
  O     -512.441     326.902    -312.999
  N     -510.349     326.093    -312.722
  C     -509.347     325.438    -313.231
  N     -508.261     325.229    -312.444
  C     -509.359     324.892    -314.615
  C     -510.469     325.058    -315.301
  O     -515.014     325.342    -320.230
  O     -513.843     323.270    -321.302
  H     -514.675     328.606    -315.927
  H     -514.607     323.231    -321.919
  H     -508.494     324.347    -315.000
  H     -510.569     324.664    -316.313
  H     -513.632     325.483    -314.913
  H     -512.586     328.107    -315.079
  H     -511.566     327.664    -317.267
  H     -514.190     326.191    -317.971
  H     -508.386     325.461    -311.458
  H     -512.760     326.456    -319.888
  H     -507.591     324.494    -312.651
  H     -511.292     325.937    -319.019
  P     -512.594     330.095    -317.789
  C     -514.039     331.681    -316.320
  O     -513.065     330.653    -316.349
  O     -513.396     330.989    -318.852
  O     -511.110     330.112    -318.025
  H     -512.877     331.116    -319.649
  H     -514.428     331.770    -315.306
  H     -514.868     331.476    -317.015
  H     -513.534     332.642    -316.581
  H     -514.877     321.168    -318.201
  H     -513.310     321.641    -318.813
  H     -514.611     321.288    -319.924

 3  4  5  6  7  8  9  10  11  12  13  23  27  28  29  30  32 0
 6-311+G(2d,p)
 ****
 34  35 0
 6-311+G(2d,p)
 ****
 1  2  14  15  16  17  18  19  20  21  22  24  25  26 0
 3-21G
 ****
 31  33  36  37  38  39  40  41  42  43  44  45  46 0
 3-21G
 ****


