%nproc=1
%NoSave
%Mem=1900MB
#P OB98/GEN NMR

erre ene a

0 1
  C       43.767       6.265      18.662
  O       44.539       7.374      18.260
  H       44.439       5.430      18.872
  H       43.088       5.977      17.854
  H       43.190       6.486      19.564
  P       43.882       8.831      18.317
  C       43.388       8.795      15.785
  O       44.016       9.487      16.857
  C       44.220       8.854      14.503
  O       43.576       8.097      13.455
  C       44.363      10.279      13.968
  O       45.403      11.043      14.550
  C       44.630      10.030      12.486
  O       46.028       9.795      12.250
  C       43.819       8.763      12.204
  N       41.160       8.692       7.843
  C       42.488       8.377       8.057
  N       43.210       8.059       6.960
  N       43.051       8.393       9.236
  C       42.231       8.822      10.224
  C       40.904       9.174      10.131
  C       40.274       9.101       8.828
  O       39.104       9.376       8.584
  N       40.397       9.556      11.350
  C       41.435       9.505      12.160
  N       42.564       9.040      11.529
  O       44.933       9.685      19.176
  O       42.514       8.894      18.924
  H       46.341       9.131      12.890
  H       44.478      10.425      19.617
  H       40.773       8.636       6.918
  H       41.417       9.767      13.213
  H       44.377       8.062      11.571
  H       44.346      10.890      11.874
  H       42.851       8.147       6.022
  H       43.414      10.817      14.060
  H       44.229       8.084       7.036
  H       45.197       8.390      14.685
  H       42.421       9.276      15.624
  H       43.192       7.757      16.066
  P       45.055      12.355      15.398
  C       46.256      13.843      13.633
  O       46.125      13.475      14.988
  O       45.484      11.942      16.882
  O       43.631      12.787      15.332
  H       44.707      11.630      17.383
  H       47.009      14.597      13.539
  H       45.323      14.225      13.275
  H       46.535      12.986      13.056

 6  7  8  9  10  11  12  13  14  15  26  29  33  34 0
 6-311+G(2d,p)
 ****
 36  38  39  40  41 0
 6-311+G(2d,p)
 ****
 1  2  3  4  5  16  17  18  19  20  21  22  23  24  25 0
 3-21G
 ****
 27  28  30  31  32  35  37  42  43  44  45  46  47 0
 3-21G
 ****
 48  49 0
 3-21G
 ****


