%nproc=1
%NoSave
%Mem=1900MB
#P OB98/GEN NMR

erre ene a

0 1
  C       45.600      81.518    -150.645
  O       46.992      81.853    -150.699
  P       47.500      83.362    -150.899
  C       48.921      83.165    -153.038
  O       48.931      83.332    -151.624
  C       50.285      83.487    -153.657
  O       50.618      84.876    -153.465
  C       51.448      82.690    -153.075
  O       51.477      81.383    -153.616
  C       52.633      83.572    -153.456
  O       53.014      83.339    -154.823
  C       52.045      84.980    -153.298
  N       55.705      87.265    -150.553
  C       55.683      86.801    -151.821
  N       54.671      86.198    -152.480
  C       53.580      86.118    -151.699
  C       53.454      86.543    -150.386
  C       54.584      87.142    -149.804
  N       54.607      87.600    -148.507
  N       52.192      86.269    -149.902
  C       51.562      85.703    -150.913
  N       52.358      85.590    -152.019
  O       47.459      84.192    -149.659
  O       46.530      83.971    -152.019
  H       53.696      83.997    -155.052
  H       46.454      84.936    -151.899
  H       56.606      86.928    -152.382
  H       50.534      85.364    -150.893
  H       52.402      85.658    -154.081
  H       53.514      83.388    -152.835
  H       51.364      82.648    -151.984
  H       50.209      83.318    -154.739
  H       48.161      83.832    -153.459
  H       55.468      87.987    -148.153
  H       53.791      87.470    -147.927
  H       48.645      82.129    -153.264
  P       50.458      80.270    -153.083
  C       52.398      79.043    -151.940
  O       51.307      78.933    -152.833
  O       49.216      80.092    -153.889
  O       50.118      80.752    -151.592
  H       49.218      80.458    -151.357
  H       53.251      79.487    -152.460
  H       52.673      78.041    -151.598
  H       52.136      79.655    -151.073
  H       45.492      80.462    -150.507
  H       45.128      81.808    -151.560
  H       45.141      82.033    -149.828

 3  4  5  6  7  8  9  10  11  12  22  25  29  30  31  32 0
 6-311+G(2d,p)
 ****
 33  36  37 0
 6-311+G(2d,p)
 ****
 1  2  13  14  15  16  17  18  19  20  21  23  24  26 0
 3-21G
 ****
 27  28  34  35  38  39  40  41  42  43  44  45  46  47  48 0
 3-21G
 ****


