%nproc=1
%NoSave
%Mem=1900MB
#P OB98/GEN NMR

erre ene a

0 1
  C       29.038     -61.519      -0.040
  O       28.398     -61.117      -1.238
  P       28.498     -62.108      -2.500
  C       30.604     -60.895      -3.419
  O       30.038     -62.114      -2.951
  C       32.006     -61.114      -3.989
  O       32.857     -61.648      -2.945
  C       32.055     -62.075      -5.178
  O       33.042     -61.593      -6.090
  C       32.545     -63.374      -4.564
  O       33.175     -64.210      -5.532
  C       33.472     -62.850      -3.456
  N       33.681     -63.835      -2.400
  C       34.086     -65.112      -2.797
  O       34.175     -65.386      -3.995
  N       34.330     -66.061      -1.835
  C       34.084     -65.789      -0.590
  N       34.344     -66.760       0.326
  C       33.538     -64.493      -0.140
  C       33.383     -63.567      -1.085
  O       27.776     -61.279      -3.662
  O       27.875     -63.449      -2.288
  H       32.643     -64.174      -6.359
  H       27.324     -61.877      -4.288
  H       33.315     -64.330       0.905
  H       33.010     -62.579      -0.844
  H       34.451     -62.571      -3.871
  H       31.700     -63.923      -4.130
  H       31.092     -62.167      -5.689
  H       32.416     -60.137      -4.273
  H       34.704     -67.645      -0.009
  H       30.680     -60.194      -2.583
  H       34.183     -66.639       1.317
  H       29.944     -60.454      -4.174
  P       32.897     -62.008      -7.633
  C       34.681     -63.810      -7.229
  O       33.376     -63.538      -7.697
  O       34.153     -61.253      -8.287
  O       31.631     -61.663      -8.344
  H       34.143     -61.376      -9.254
  H       34.825     -64.894      -7.202
  H       34.819     -63.410      -6.222
  H       35.419     -63.377      -7.911
  H       28.892     -60.771       0.711
  H       30.085     -61.644      -0.220
  H       28.620     -62.446       0.294

 3  4  5  6  7  8  9  10  11  12  13  21  23  27  28  29  30  32 0
 6-311+G(2d,p)
 ****
 34  35 0
 6-311+G(2d,p)
 ****
 1  2  14  15  16  17  18  19  20  22  24  25  26 0
 3-21G
 ****
 31  33  36  37  38  39  40  41  42  43  44  45  46 0
 3-21G
 ****


