%nproc=1
%NoSave
%Mem=1900MB
#P OB98/GEN NMR

erre ene a

0 1
  C     -370.814     -82.466     102.727
  O     -371.083     -83.648     103.454
  H     -370.053     -82.682     101.973
  H     -370.436     -81.683     103.391
  H     -371.719     -82.117     102.221
  P     -372.112     -83.577     104.679
  C     -373.861     -85.132     103.571
  O     -373.569     -83.825     104.057
  C     -375.279     -85.546     103.957
  O     -376.237     -84.609     103.422
  C     -375.695     -86.913     103.431
  O     -375.086     -87.944     104.179
  C     -377.206     -86.817     103.562
  O     -377.619     -87.028     104.919
  C     -377.452     -85.347     103.139
  N     -377.831     -85.199     101.738
  C     -379.202     -85.058     101.484
  O     -380.009     -85.077     102.411
  N     -379.614     -84.918     100.179
  C     -378.739     -84.876      99.223
  N     -379.213     -84.730      97.954
  C     -377.285     -84.986      99.452
  C     -376.906     -85.156     100.715
  O     -372.013     -82.369     105.558
  O     -371.834     -84.926     105.496
  H     -377.286     -87.915     105.168
  H     -371.195     -84.763     106.215
  H     -376.594     -84.936      98.623
  H     -375.855     -85.245     100.972
  H     -378.243     -84.899     103.755
  H     -377.723     -87.555     102.949
  H     -375.443     -87.003     102.367
  H     -375.357     -85.506     105.053
  H     -380.218     -84.639      97.849
  H     -373.132     -85.814     104.028
  H     -378.627     -84.525      97.159
  H     -373.737     -85.174     102.484
  P     -374.870     -89.413     103.572
  C     -372.762     -88.637     102.313
  O     -374.062     -89.201     102.195
  O     -376.108     -90.237     103.450
  O     -373.762     -90.059     104.528
  H     -374.173     -90.349     105.383
  H     -372.324     -88.544     101.341
  H     -372.151     -89.272     102.920
  H     -372.832     -87.671     102.767

 6  7  8  9  10  11  12  13  14  15  16  26  30  31  32  33  35 0
 6-311+G(2d,p)
 ****
 37  38 0
 6-311+G(2d,p)
 ****
 1  2  3  4  5  17  18  19  20  21  22  23  24  25 0
 3-21G
 ****
 27  28  29  34  36  39  40  41  42  43  44  45  46 0
 3-21G
 ****


