%nproc=1
%NoSave
%Mem=1900MB
#P OB98/GEN NMR

erre ene a

0 1
  C     -108.579      91.011      67.470
  O     -108.865      92.068      66.574
  H     -108.050      91.419      68.336
  H     -107.934      90.277      66.982
  H     -109.498      90.528      67.818
  P     -109.874      91.806      65.357
  C     -111.297      93.859      66.020
  O     -110.522      93.233      65.004
  C     -111.363      95.371      65.776
  O     -110.036      95.934      66.019
  C     -111.769      95.741      64.331
  O     -112.534      96.950      64.365
  C     -110.415      96.004      63.697
  O     -110.520      96.780      62.529
  C     -109.678      96.683      64.847
  N     -108.236      96.707      64.619
  C     -107.722      97.803      63.931
  O     -108.421      98.726      63.507
  N     -106.381      97.780      63.673
  C     -105.540      96.732      63.932
  O     -104.360      96.733      63.606
  C     -106.146      95.576      64.611
  C     -107.442      95.618      64.925
  O     -110.867      90.705      65.555
  O     -108.921      91.551      64.099
  H     -110.876      97.660      62.745
  H     -109.404      91.067      63.398
  H     -105.994      98.572      63.186
  H     -105.507      94.725      64.821
  H     -107.926      94.774      65.411
  H     -110.036      97.712      64.986
  H     -109.932      95.054      63.430
  H     -112.333      94.955      63.829
  H     -112.044      95.824      66.502
  H     -110.819      93.663      66.987
  H     -112.304      93.435      66.027
  P     -113.953      97.077      63.628
  C     -115.099      98.982      64.922
  O     -114.495      98.594      63.690
  O     -114.963      96.055      64.061
  O     -113.611      96.874      62.071
  H     -114.258      96.254      61.679
  H     -115.422     100.000      64.856
  H     -114.387      98.884      65.715
  H     -115.942      98.353      65.120

 6  7  8  9  10  11  12  13  14  15  16  26  31  32  33  34  35 0
 6-311+G(2d,p)
 ****
 36  37 0
 6-311+G(2d,p)
 ****
 1  2  3  4  5  17  18  19  20  21  22  23  24  25 0
 3-21G
 ****
 27  28  29  30  38  39  40  41  42  43  44  45 0
 3-21G
 ****


