%nproc=1
%NoSave
%Mem=1900MB
#P OB98/GEN NMR

erre ene a

0 1
  C        2.309     -13.226     318.444
  O        1.353     -12.793     317.471
  P        1.482     -13.409     315.996
  C        3.307     -12.267     314.555
  O        3.011     -13.268     315.520
  C        4.794     -12.280     314.179
  O        5.180     -13.571     313.625
  C        5.175     -11.221     313.136
  O        6.511     -10.787     313.425
  C        5.188     -12.007     311.839
  O        5.936     -11.337     310.829
  C        5.763     -13.335     312.329
  N        7.833     -17.024     309.473
  C        8.384     -16.083     310.272
  N        7.760     -15.118     310.983
  C        6.425     -15.216     310.841
  C        5.725     -16.112     310.056
  C        6.488     -17.054     309.341
  N        5.930     -17.996     308.506
  N        4.368     -15.869     310.132
  C        4.258     -14.835     310.948
  N        5.472     -14.429     311.425
  O        0.703     -12.346     315.086
  O        0.898     -14.776     315.860
  H        6.840     -11.184     311.170
  H       -0.146     -12.721     314.790
  H        9.467     -16.104     310.347
  H        3.332     -14.348     311.215
  H        6.857     -13.295     312.445
  H        4.157     -12.138     311.475
  H        4.504     -10.355     313.099
  H        5.385     -12.126     315.090
  H        3.048     -11.278     314.948
  H        6.550     -18.614     308.006
  H        4.931     -17.997     308.362
  H        2.675     -12.419     313.677
  P        6.656      -9.477     314.336
  C        5.510      -7.925     312.604
  O        5.473      -8.491     313.899
  O        7.975      -8.767     313.766
  O        6.761      -9.759     315.800
  H        8.385      -8.216     314.455
  H        4.499      -7.919     312.191
  H        6.164      -8.477     311.926
  H        5.866      -6.892     312.678
  H        2.111     -12.743     319.378
  H        3.295     -12.973     318.113
  H        2.236     -14.286     318.569

 3  4  5  6  7  8  9  10  11  12  22  25  29  30  31  32 0
 6-311+G(2d,p)
 ****
 33  36  37 0
 6-311+G(2d,p)
 ****
 1  2  13  14  15  16  17  18  19  20  21  23  24  26 0
 3-21G
 ****
 27  28  34  35  38  39  40  41  42  43  44  45  46  47  48 0
 3-21G
 ****


