%nproc=1
%NoSave
%Mem=1900MB
#P OB98/GEN NMR

erre ene a

0 1
  C     -751.893    1205.885     -75.420
  O     -751.548    1206.879     -76.390
  P     -751.966    1206.732     -77.933
  C     -749.948    1205.273     -78.533
  O     -751.366    1205.322     -78.394
  C     -749.540    1204.019     -79.318
  O     -750.043    1202.848     -78.608
  C     -750.103    1203.900     -80.714
  O     -749.338    1204.565     -81.725
  C     -749.977    1202.396     -80.952
  O     -748.632    1202.042     -81.281
  C     -750.361    1201.828     -79.586
  N     -754.225    1199.229     -81.728
  C     -752.906    1199.341     -82.052
  N     -751.962    1200.100     -81.460
  C     -752.449    1200.679     -80.354
  C     -753.738    1200.654     -79.871
  C     -754.660    1199.848     -80.591
  N     -755.991    1199.725     -80.249
  N     -753.866    1201.417     -78.737
  C     -752.665    1201.887     -78.530
  N     -751.762    1201.454     -79.462
  O     -751.610    1207.912     -78.779
  O     -753.539    1206.452     -77.874
  H     -748.600    1201.069     -81.386
  H     -753.945    1206.620     -78.777
  H     -752.598    1198.792     -82.955
  H     -752.391    1202.548     -77.696
  H     -749.761    1200.923     -79.310
  H     -750.605    1202.036     -81.768
  H     -751.155    1204.174     -80.760
  H     -748.448    1203.956     -79.312
  H     -749.522    1205.204     -77.523
  H     -756.529    1199.039     -80.776
  H     -756.275    1200.048     -79.343
  H     -749.574    1206.162     -79.029
  P     -750.144    1205.584     -82.693
  C     -750.745    1203.902     -84.587
  O     -751.189    1204.671     -83.501
  O     -749.268    1206.458     -83.501
  O     -751.066    1206.403     -81.646
  H     -751.776    1205.872     -81.247
  H     -751.577    1203.227     -84.909
  H     -749.896    1203.274     -84.315
  H     -750.477    1204.537     -85.430
  H     -751.520    1206.178     -74.461
  H     -751.459    1204.948     -75.700
  H     -752.957    1205.786     -75.374

 3  4  5  6  7  8  9  10  11  12  22  25  29  30  31  32 0
 6-311+G(2d,p)
 ****
 33  36  37 0
 6-311+G(2d,p)
 ****
 1  2  13  14  15  16  17  18  19  20  21  23  24  26 0
 3-21G
 ****
 27  28  34  35  38  39  40  41  42  43  44  45  46  47  48 0
 3-21G
 ****


