%nproc=1
%NoSave
%Mem=1900MB
#P OB98/GEN NMR

erre ene a

0 1
  C     -180.274     230.221     199.037
  O     -180.219     231.650     199.133
  P     -181.573     232.471     199.384
  C     -182.605     231.677     201.614
  O     -181.786     232.649     200.970
  C     -182.994     232.144     203.023
  O     -181.807     232.543     203.777
  C     -183.942     233.352     203.007
  O     -184.846     233.297     204.123
  C     -183.001     234.523     203.228
  O     -183.696     235.674     203.714
  C     -182.006     233.903     204.209
  N     -179.730     238.497     203.994
  C     -181.036     238.135     204.006
  N     -181.565     236.896     204.088
  C     -180.597     235.970     204.177
  C     -179.223     236.186     204.187
  C     -178.792     237.520     204.080
  N     -177.463     237.881     204.037
  N     -178.540     234.990     204.283
  C     -179.482     234.064     204.286
  N     -180.739     234.609     204.256
  O     -182.773     231.983     198.635
  O     -181.176     233.957     198.926
  H     -184.162     235.412     204.530
  H     -181.920     234.344     198.416
  H     -181.749     238.958     203.936
  H     -179.305     232.997     204.291
  H     -182.406     233.871     205.229
  H     -182.512     234.793     202.279
  H     -184.525     233.460     202.084
  H     -183.445     231.300     203.564
  H     -182.075     230.724     201.665
  H     -177.249     238.851     203.842
  H     -176.765     237.158     203.954
  H     -183.493     231.488     200.996
  P     -186.384     233.686     203.812
  C     -187.690     231.444     204.160
  O     -187.273     232.681     204.691
  O     -186.694     233.738     202.351
  O     -186.523     235.102     204.549
  H     -186.211     235.109     205.475
  H     -188.166     230.863     204.960
  H     -186.830     230.871     203.785
  H     -188.408     231.604     203.353
  H     -179.290     229.837     198.870
  H     -180.909     229.942     198.222
  H     -180.665     229.817     199.948

 3  4  5  6  7  8  9  10  11  12  22  25  29  30  31  32 0
 6-311+G(2d,p)
 ****
 33  36  37 0
 6-311+G(2d,p)
 ****
 1  2  13  14  15  16  17  18  19  20  21  23  24  26 0
 3-21G
 ****
 27  28  34  35  38  39  40  41  42  43  44  45  46  47  48 0
 3-21G
 ****


