%nproc=1
%NoSave
%Mem=1900MB
#P OB98/GEN NMR

erre ene a

0 1
  C     -263.667      50.187     -65.632
  O     -263.638      51.598     -65.586
  H     -262.641      49.818     -65.718
  H     -264.236      49.847     -66.501
  H     -264.110      49.789     -64.717
  P     -265.054      52.349     -65.519
  C     -265.296      52.212     -62.937
  O     -265.798      51.811     -64.203
  C     -266.039      51.468     -61.833
  O     -265.420      51.739     -60.554
  C     -267.494      51.884     -61.675
  O     -268.331      51.299     -62.656
  C     -267.788      51.378     -60.272
  O     -268.138      49.985     -60.277
  C     -266.443      51.609     -59.548
  N     -266.489      52.767     -58.661
  C     -266.989      52.530     -57.384
  O     -267.376      51.424     -57.007
  N     -267.069      53.620     -56.562
  C     -266.740      54.900     -56.896
  O     -266.904      55.845     -56.136
  C     -266.203      55.089     -58.255
  C     -266.112      54.031     -59.065
  O     -265.875      51.681     -66.721
  O     -264.988      53.834     -65.639
  H     -265.898      52.288     -67.484
  H     -267.474      49.540     -60.841
  H     -267.440      53.470     -55.636
  H     -265.927      56.093     -58.550
  H     -265.738      54.150     -60.078
  H     -266.181      50.732     -58.943
  H     -268.623      51.912     -59.820
  H     -267.580      52.978     -61.681
  H     -265.964      50.391     -62.029
  H     -265.448      53.289     -62.808
  H     -264.222      52.001     -62.896
  P     -269.658      52.083     -63.098
  C     -268.764      52.538     -65.527
  O     -269.231      53.061     -64.297
  O     -269.868      53.063     -61.853
  O     -270.811      51.190     -63.400
  H     -269.032      53.380     -61.473
  H     -268.532      53.344     -66.192
  H     -269.522      51.922     -65.964
  H     -267.885      51.953     -65.355

 6  7  8  9  10  11  12  13  14  15  16  27  31  32  33  34  35 0
 6-311+G(2d,p)
 ****
 36  37 0
 6-311+G(2d,p)
 ****
 1  2  3  4  5  17  18  19  20  21  22  23  24  25 0
 3-21G
 ****
 26  28  29  30  38  39  40  41  42  43  44  45 0
 3-21G
 ****


