%nproc=1
%NoSave
%Mem=1900MB
#P OB98/GEN NMR

erre ene a

0 1
  C      250.591      64.385     -19.270
  O      250.946      63.121     -19.801
  H      251.496      64.877     -18.907
  H      249.895      64.259     -18.437
  H      250.136      65.006     -20.047
  P      249.750      62.242     -20.406
  C      250.544      59.882     -19.629
  O      250.373      60.793     -20.703
  C      251.976      59.334     -19.615
  O      252.154      58.465     -20.773
  C      253.059      60.421     -19.705
  O      254.236      59.932     -19.037
  C      253.315      60.477     -21.204
  O      254.504      61.180     -21.488
  C      253.276      58.985     -21.523
  N      255.709      58.355     -25.973
  C      256.165      58.572     -24.723
  N      255.459      58.718     -23.586
  C      254.139      58.596     -23.827
  C      253.527      58.366     -25.045
  C      254.371      58.249     -26.162
  N      253.909      58.037     -27.439
  N      252.152      58.310     -24.896
  C      251.945      58.500     -23.608
  N      253.115      58.685     -22.925
  O      249.530      62.869     -21.860
  O      248.492      62.230     -19.603
  H      254.769      61.052     -22.424
  H      248.810      63.528     -21.832
  H      257.248      58.640     -24.623
  H      250.976      58.522     -23.124
  H      254.178      58.471     -21.172
  H      252.507      61.011     -21.717
  H      252.758      61.376     -19.264
  H      252.112      58.708     -18.726
  H      249.832      59.058     -19.754
  H      250.341      60.393     -18.683
  H      254.579      57.978     -28.189
  H      252.913      57.971     -27.597
  P      254.638      60.554     -17.610
  C      257.205      60.119     -17.870
  O      256.015      59.888     -17.127
  O      253.573      59.855     -16.630
  O      254.554      62.040     -17.502
  H      253.408      60.436     -15.862
  H      258.020      59.602     -17.408
  H      257.414      61.168     -17.891
  H      257.076      59.760     -18.870

 6  7  8  9  10  11  12  13  14  15  25  28  32  33  34  35 0
 6-311+G(2d,p)
 ****
 36  37  40 0
 6-311+G(2d,p)
 ****
 1  2  3  4  5  16  17  18  19  20  21  22  23  24 0
 3-21G
 ****
 26  27  29  30  31  38  39 41  42  43  44  45  46  47  48 0
 3-21G
 ****


