%nproc=1
%NoSave
%Mem=1900MB
#P OB98/GEN NMR

erre ene a

0 1
  C      242.094     814.617     -65.051
  O      241.613     813.463     -64.382
  P      241.977     813.177     -62.855
  C      241.696     810.564     -62.868
  O      241.260     811.828     -62.405
  C      240.824     809.474     -62.231
  O      241.086     809.387     -60.816
  C      239.339     809.768     -62.425
  O      238.841     809.100     -63.579
  C      238.740     809.269     -61.125
  O      238.549     807.839     -61.169
  C      239.842     809.632     -60.105
  N      239.884     811.015     -59.588
  C      238.823     811.486     -58.817
  O      237.852     810.808     -58.494
  N      238.915     812.802     -58.423
  C      239.959     813.642     -58.693
  O      239.917     814.856     -58.557
  C      241.144     813.013     -59.270
  C      241.047     811.756     -59.705
  O      241.165     814.309     -62.070
  O      243.434     813.211     -62.529
  H      238.203     807.565     -60.309
  H      241.742     815.059     -61.844
  H      238.086     813.188     -57.979
  H      242.043     813.605     -59.372
  H      241.904     811.282     -60.169
  H      239.816     808.962     -59.239
  H      237.752     809.698     -60.963
  H      239.175     810.848     -62.494
  H      241.085     808.508     -62.686
  H      242.755     810.417     -62.595
  H      241.638     810.521     -63.956
  P      238.811     809.863     -64.979
  C      236.771     808.773     -66.093
  O      238.188     808.814     -66.014
  O      240.110     810.492     -65.396
  O      237.661     810.959     -64.783
  H      238.059     811.821     -64.550
  H      236.481     808.156     -66.947
  H      236.367     809.785     -66.216
  H      236.365     808.323     -65.181
  H      241.737     814.619     -66.060
  H      243.164     814.609     -65.051
  H      241.744     815.493     -64.547

 3  4  5  6  7  8  9  10  11  12  13  23  28  29  30  31  32 0
 6-311+G(2d,p)
 ****
 33  34 0
 6-311+G(2d,p)
 ****
 1  2  14  15  16  17  18  19  20  21  22  24  25  26  27 0
 3-21G
 ****
 35  36  37  38  39  40  41  42  43  44  45 0
 3-21G
 ****


