%nproc=1
%NoSave
%Mem=1900MB
#P OB98/GEN NMR

erre ene a

0 1
  C      170.644    -104.677     329.101
  O      170.132    -103.754     328.160
  H      170.499    -105.696     328.736
  H      171.716    -104.495     329.227
  H      170.147    -104.553     330.070
  P      168.540    -103.734     327.957
  C      168.167    -102.662     330.297
  O      167.998    -102.544     328.892
  C      167.986    -101.302     330.973
  O      168.784    -100.319     330.263
  C      166.534    -100.809     330.976
  O      166.271    -100.155     332.222
  C      166.500     -99.798     329.844
  O      165.467     -98.834     330.011
  C      167.913     -99.224     329.908
  N      167.466     -95.132     326.884
  C      167.031     -95.382     328.138
  N      167.200     -96.498     328.876
  C      167.941     -97.401     328.208
  C      168.455     -97.290     326.926
  C      168.183     -96.091     326.247
  N      168.592     -95.845     324.956
  N      169.132     -98.445     326.575
  C      169.032     -99.230     327.629
  N      168.316     -98.647     328.636
  O      168.082    -105.060     328.734
  O      168.066    -103.719     326.544
  H      165.549     -98.169     329.296
  H      168.236    -105.839     328.164
  H      166.467     -94.580     328.608
  H      169.444    -100.230     327.707
  H      168.013     -98.437     330.670
  H      166.334    -100.317     328.891
  H      165.812    -101.615     330.832
  H      168.389    -101.359     331.994
  H      169.172    -103.044     330.504
  H      168.305     -94.979     324.524
  H      169.074     -96.570     324.440
  H      167.430    -103.371     330.691
  P      165.608    -101.043     333.382
  C      167.493    -102.759     333.862
  O      166.779    -101.619     334.319
  O      165.078    -102.337     332.598
  O      164.497    -100.352     334.106
  H      164.150    -102.513     332.840
  H      168.236    -103.027     334.584
  H      167.966    -102.533     332.929
  H      166.814    -103.575     333.729

 6  7  8  9  10  11  12  13  14  15  25  28  32  33  34  35 0
 6-311+G(2d,p)
 ****
 36  39  40 0
 6-311+G(2d,p)
 ****
 1  2  3  4  5  16  17  18  19  20  21  22  23  24 0
 3-21G
 ****
 26  27  29  30  31  37  38  41  42  43  44  45  46  47 0
 3-21G
 ****
 48 0
 3-21G
 ****


