%nproc=1
%NoSave
%Mem=1900MB
#P OB98/GEN NMR

erre ene a

0 1
  C     -895.844     329.668    -892.937
  O     -895.223     330.029    -894.148
  H     -895.427     330.283    -892.122
  H     -895.671     328.621    -892.693
  H     -896.923     329.867    -892.983
  P     -895.681     329.213    -895.451
  C     -893.267     328.364    -895.905
  O     -894.627     328.012    -895.576
  C     -892.352     327.184    -895.609
  O     -892.288     326.932    -894.181
  C     -892.756     325.881    -896.254
  O     -892.288     325.822    -897.609
  C     -892.025     324.868    -895.373
  O     -890.629     324.774    -895.797
  C     -892.109     325.512    -893.978
  N     -894.009     321.413    -891.533
  C     -893.004     321.531    -892.453
  N     -892.592     322.650    -893.095
  C     -893.322     323.717    -892.715
  C     -894.352     323.760    -891.783
  C     -894.705     322.537    -891.191
  N     -895.716     322.407    -890.270
  N     -894.854     325.026    -891.670
  C     -894.099     325.759    -892.428
  N     -893.167     325.018    -893.126
  O     -895.900     330.029    -896.686
  O     -896.988     328.471    -894.904
  H     -890.219     325.644    -895.582
  H     -896.833     328.147    -893.994
  H     -892.484     320.625    -892.705
  H     -894.157     326.851    -892.528
  H     -891.171     325.387    -893.414
  H     -892.421     323.856    -895.445
  H     -893.831     325.689    -896.171
  H     -891.317     327.476    -895.936
  H     -892.951     329.238    -895.324
  H     -895.999     321.485    -890.028
  H     -896.316     323.208    -890.104
  H     -893.247     328.611    -896.965
  P     -892.637     324.564    -898.538
  C     -890.137     324.074    -898.959
  O     -891.387     323.591    -898.438
  O     -893.045     324.930    -899.945
  O     -893.800     323.786    -897.755
  H     -894.266     323.170    -898.361
  H     -889.384     323.325    -898.829
  H     -889.851     324.962    -898.434
  H     -890.246     324.294    -900.000

 6  7  8  9  10  11  12  13  14  15  25  28  32  33  34  35 0
 6-311+G(2d,p)
 ****
 36  39  40 0
 6-311+G(2d,p)
 ****
 1  2  3  4  5  16  17  18  19  20  21  22  23  24 0
 3-21G
 ****
 26  27  29  30  31  37  38  41  42  43  44  45  46  47 0
 3-21G
 ****
 48 0
 3-21G
 ****


