%nproc=1
%NoSave
%Mem=1900MB
#P OB98/GEN NMR

erre ene a

0 1
  C       99.550    -231.252    -234.938
  O       99.600    -232.036    -236.123
  P       98.232    -232.669    -236.672
  C       98.501    -234.813    -235.237
  O       97.698    -233.682    -235.545
  C       97.639    -236.062    -235.050
  O       96.788    -235.880    -233.887
  C       96.727    -236.395    -236.235
  O       96.612    -237.821    -236.300
  C       95.393    -235.809    -235.812
  O       94.299    -236.390    -236.517
  C       95.426    -236.103    -234.316
  N       91.063    -235.951    -231.648
  C       91.718    -236.970    -232.247
  N       92.876    -236.933    -232.939
  C       93.361    -235.681    -232.982
  C       92.791    -234.537    -232.449
  C       91.584    -234.700    -231.747
  N       90.925    -233.668    -231.127
  N       93.572    -233.432    -232.723
  C       94.594    -233.900    -233.410
  N       94.522    -235.255    -233.568
  O       98.736    -233.640    -237.839
  O       97.233    -231.684    -237.178
  H       94.541    -236.455    -237.459
  H       98.455    -233.292    -238.707
  H       91.250    -237.949    -232.152
  H       95.404    -233.304    -233.811
  H       95.170    -237.148    -234.094
  H       95.383    -234.729    -236.006
  H       97.077    -235.997    -237.194
  H       98.305    -236.909    -234.831
  H       99.043    -234.619    -234.311
  H       90.143    -233.888    -230.532
  H       91.397    -232.774    -231.033
  H       99.229    -234.973    -236.039
  P       96.635    -238.488    -237.759
  C       94.161    -239.254    -237.908
  O       95.154    -238.350    -238.349
  O       96.777    -240.050    -237.446
  O       97.738    -237.995    -238.638
  H       97.225    -240.499    -238.189
  H       93.197    -238.743    -237.888
  H       94.380    -239.639    -236.905
  H       94.106    -240.095    -238.607
  H      100.533    -230.902    -234.700
  H       99.179    -231.849    -234.131
  H       98.901    -230.415    -235.091

 3  4  5  6  7  8  9  10  11  12  22  25  29  30  31  32 0
 6-311+G(2d,p)
 ****
 33  36  37 0
 6-311+G(2d,p)
 ****
 1  2  13  14  15  16  17  18  19  20  21  23  24  26 0
 3-21G
 ****
 27  28  34  35  38  39  40  41  42  43  44  45  46  47  48 0
 3-21G
 ****


