%nproc=1
%NoSave
%Mem=1900MB
#P OB98/GEN NMR

erre ene a

0 1
  C      152.116     136.609    -579.835
  O      150.981     137.439    -580.092
  P      150.938     138.214    -581.494
  C      149.032     136.823    -582.597
  O      150.403     137.206    -582.618
  C      148.773     135.738    -583.646
  O      149.385     134.491    -583.271
  C      147.296     135.418    -583.822
  O      146.662     136.409    -584.606
  C      147.348     134.047    -584.482
  O      147.388     134.151    -585.916
  C      148.665     133.446    -583.942
  N      148.440     132.305    -583.060
  C      148.792     131.058    -583.576
  O      149.243     130.961    -584.722
  N      148.606     129.953    -582.790
  C      148.090     130.076    -581.607
  N      147.918     128.942    -580.878
  C      147.678     131.377    -581.040
  C      147.881     132.443    -581.816
  O      152.485     138.395    -581.864
  O      150.229     139.531    -581.438
  H      147.525     133.235    -586.241
  H      152.622     139.226    -582.355
  H      147.242     131.431    -580.055
  H      147.606     133.437    -581.476
  H      149.301     133.110    -584.772
  H      146.464     133.452    -584.232
  H      146.811     135.338    -582.840
  H      149.201     136.070    -584.603
  H      148.209     128.067    -581.302
  H      148.396     137.686    -582.791
  H      147.519     128.926    -579.953
  H      148.779     136.465    -581.593
  P      145.745     137.483    -583.849
  C      147.292     139.335    -584.730
  O      146.710     138.736    -583.587
  O      145.622     136.850    -582.386
  O      144.411     137.783    -584.443
  H      144.997     137.366    -581.846
  H      147.745     140.285    -584.435
  H      146.536     139.530    -585.493
  H      148.073     138.685    -585.128
  H      152.015     136.156    -578.871
  H      153.005     137.204    -579.858
  H      152.177     135.846    -580.583

 3  4  5  6  7  8  9  10  11  12  13  21  23  27  28  29  30  32 0
 6-311+G(2d,p)
 ****
 34  35 0
 6-311+G(2d,p)
 ****
 1  2  14  15  16  17  18  19  20  22  24  25  26 0
 3-21G
 ****
 31  33  36  37  38  39  40  41  42  43  44  45  46 0
 3-21G
 ****


