%nproc=1
%NoSave
%Mem=1900MB
#P OB98/GEN NMR

erre ene a

0 1
  C      498.994    -393.135      -2.861
  O      498.197    -392.597      -3.898
  H      499.837    -393.666      -3.306
  H      498.409    -393.842      -2.268
  H      499.382    -392.341      -2.215
  P      496.993    -391.613      -3.520
  C      497.177    -390.614      -5.896
  O      496.320    -391.152      -4.899
  C      496.393    -390.309      -7.177
  O      496.149    -391.560      -7.888
  C      495.017    -389.645      -6.931
  O      494.747    -388.819      -8.068
  C      494.116    -390.866      -6.910
  O      492.755    -390.533      -6.971
  C      494.720    -391.648      -8.091
  N      494.296    -393.040      -8.200
  C      492.966    -393.285      -8.516
  O      492.120    -392.413      -8.719
  N      492.608    -394.605      -8.604
  C      493.436    -395.672      -8.422
  O      493.067    -396.836      -8.543
  C      494.833    -395.350      -8.081
  C      495.194    -394.069      -7.993
  O      497.333    -390.502      -2.579
  O      495.889    -392.595      -2.893
  H      495.902    -392.528      -1.923
  H      492.226    -391.360      -7.027
  H      491.650    -394.802      -8.835
  H      495.515    -396.170      -7.922
  H      496.217    -393.794      -7.751
  H      494.498    -391.129      -9.028
  H      494.252    -391.413      -5.969
  H      494.989    -389.042      -6.021
  H      497.017    -389.688      -7.833
  H      497.955    -391.357      -6.109
  H      497.651    -389.706      -5.516
  P      495.078    -387.249      -8.121
  C      496.648    -387.145     -10.176
  O      495.360    -386.843      -9.646
  O      496.159    -386.824      -7.175
  O      493.690    -386.514      -7.778
  H      493.876    -385.634      -7.388
  H      496.699    -386.823     -11.195
  H      496.815    -388.201     -10.127
  H      497.397    -386.638      -9.604

 6  7  8  9  10  11  12  13  14  15  16  27  31  32  33  34  35 0
 6-311+G(2d,p)
 ****
 36  37 0
 6-311+G(2d,p)
 ****
 1  2  3  4  5  17  18  19  20  21  22  23  24  25 0
 3-21G
 ****
 26  28  29  30  38  39  40  41  42  43  44  45 0
 3-21G
 ****


