%nproc=1
%NoSave
%Mem=1900MB
#P OB98/GEN NMR

erre ene a

0 1
  C      -36.189      12.907      19.558
  O      -36.413      13.049      18.170
  P      -35.435      13.928      17.260
  C      -33.024      13.746      16.412
  O      -33.953      13.337      17.407
  C      -31.695      14.171      17.033
  O      -31.907      15.334      17.875
  C      -31.027      13.087      17.888
  O      -29.616      13.179      17.664
  C      -31.370      13.508      19.304
  O      -30.472      12.967      20.263
  C      -31.337      15.033      19.164
  N      -32.057      15.706      20.234
  C      -31.718      15.355      21.542
  O      -30.942      14.421      21.750
  N      -32.280      16.061      22.576
  C      -33.233      16.906      22.329
  N      -33.714      17.633      23.373
  C      -33.788      17.116      20.977
  C      -33.132      16.525      19.982
  O      -35.536      15.404      17.464
  O      -35.833      13.533      15.759
  H      -36.026      14.347      15.254
  H      -29.594      13.386      20.146
  H      -34.663      17.732      20.838
  H      -33.445      16.640      18.950
  H      -30.301      15.396      19.152
  H      -32.381      13.167      19.554
  H      -31.367      12.078      17.637
  H      -31.023      14.477      16.222
  H      -33.282      17.491      24.277
  H      -33.453      14.594      15.874
  H      -34.210      18.512      23.236
  H      -32.872      12.936      15.690
  P      -28.702      11.907      18.022
  C      -28.558       9.442      17.230
  O      -29.310      10.636      17.260
  O      -29.132      11.621      19.544
  O      -27.224      12.104      17.942
  H      -28.403      11.158      19.996
  H      -29.090       8.710      16.616
  H      -28.449       9.035      18.238
  H      -27.573       9.616      16.791
  H      -36.950      12.285      19.980
  H      -36.216      13.870      20.024
  H      -35.231      12.459      19.721

 3  4  5  6  7  8  9  10  11  12  13  24  27  28  29  30  32 0
 6-311+G(2d,p)
 ****
 34  35 0
 6-311+G(2d,p)
 ****
 1  2  14  15  16  17  18  19  20  21  22  23  25  26 0
 3-21G
 ****
 31  33  36  37  38  39  40  41  42  43  44  45  46 0
 3-21G
 ****


