%nproc=1
%NoSave
%Mem=1900MB
#P OB98/GEN NMR

erre ene a

0 1
  C       25.955    -786.314     178.251
  O       27.043    -786.968     178.858
  H       25.978    -785.257     178.529
  H       25.012    -786.746     178.612
  H       26.007    -786.400     177.167
  P       27.245    -788.526     178.506
  C       26.357    -789.419     180.771
  O       26.151    -789.327     179.368
  C       25.223    -790.204     181.435
  O       24.013    -789.382     181.426
  C       24.884    -791.537     180.732
  O       24.501    -792.480     181.736
  C       23.648    -791.176     179.920
  O       22.864    -792.326     179.580
  C       22.961    -790.209     180.882
  N       17.997    -789.728     180.185
  C       18.720    -790.623     180.969
  N       17.993    -791.523     181.664
  N       20.015    -790.619     181.046
  C       20.605    -789.642     180.312
  C       20.014    -788.698     179.505
  C       18.568    -788.725     179.403
  O       17.879    -787.973     178.715
  N       20.947    -787.897     178.915
  C       22.112    -788.351     179.362
  N       21.949    -789.404     180.222
  O       28.631    -788.869     179.238
  O       27.283    -788.854     177.052
  H       23.371    -792.859     178.938
  H       29.376    -788.767     178.612
  H       16.998    -789.777     180.145
  H       23.083    -787.949     179.105
  H       22.467    -790.721     181.717
  H       23.941    -790.674     178.994
  H       16.989    -791.552     181.686
  H       25.696    -791.945     180.127
  H       18.500    -792.157     182.273
  H       25.486    -790.373     182.488
  H       26.378    -788.402     181.198
  H       27.315    -789.913     180.974
  P       25.470    -793.738     182.001
  C       24.010    -795.396     180.618
  O       25.279    -794.768     180.788
  O       24.748    -794.483     183.221
  O       26.875    -793.365     182.328
  H       25.408    -794.974     183.742
  H       24.046    -796.049     179.771
  H       23.260    -794.649     180.461
  H       23.771    -795.961     181.495

 6  7  8  9  10  11  12  13  14  15  26  29  33  34 0
 6-311+G(2d,p)
 ****
 36  38  39  40  41 0
 6-311+G(2d,p)
 ****
 1  2  3  4  5  16  17  18  19  20  21  22  23  24  25 0
 3-21G
 ****
 27  28  30  31  32  35  37  42  43  44  45  46  47 0
 3-21G
 ****
 48  49 0
 3-21G
 ****


