%nproc=1
%NoSave
%Mem=1900MB
#P OB98/GEN NMR

erre ene a

0 1
  C      293.698      66.001    -891.790
  O      292.729      64.996    -891.460
  P      291.245      65.116    -892.050
  C      291.234      64.208    -894.490
  O      291.284      65.346    -893.650
  C      291.060      64.623    -895.970
  O      289.656      64.956    -896.230
  C      291.904      65.848    -896.390
  O      292.230      65.657    -897.780
  C      290.898      66.985    -896.260
  O      291.261      68.141    -896.990
  C      289.623      66.309    -896.750
  N      288.369      66.990    -896.370
  C      287.540      67.418    -897.370
  O      287.810      67.362    -898.580
  N      286.378      68.032    -896.970
  C      285.994      68.262    -895.670
  O      284.965      68.817    -895.370
  C      286.939      67.770    -894.640
  C      288.069      67.191    -895.040
  O      290.797      66.582    -891.520
  O      290.275      64.082    -891.570
  H      290.481      68.725    -897.020
  H      289.898      66.537    -891.150
  H      285.769      68.364    -897.700
  H      286.666      67.934    -893.600
  H      288.766      66.808    -894.280
  H      289.660      66.209    -897.840
  H      290.831      67.281    -895.190
  H      292.790      65.977    -895.790
  H      291.294      63.750    -896.600
  H      290.389      63.584    -894.200
  H      292.162      63.632    -894.370
  P      293.736      65.190    -898.130
  C      293.182      62.781    -898.970
  O      293.780      63.589    -898.000
  O      294.514      65.688    -896.810
  O      294.286      65.777    -899.400
  H      294.037      65.467    -895.990
  H      293.367      63.164    -900.000
  H      292.101      62.734    -898.800
  H      293.611      61.770    -898.910
  H      294.629      65.768    -891.316
  H      293.353      66.955    -891.449
  H      293.835      66.029    -892.851

 3  4  5  6  7  8  9  10  11  12  13  23  28  29  30  31  32 0
 6-311+G(2d,p)
 ****
 33  34 0
 6-311+G(2d,p)
 ****
 1  2  14  15  16  17  18  19  20  21  22  24  25  26 0
 3-21G
 ****
 27  35  36  37  38  39  40  41  42  43  44  45 0
 3-21G
 ****


