%nproc=1
%NoSave
%Mem=1900MB
#P OB98/GEN NMR

erre ene a

0 1
  C      124.907     151.243      13.005
  O      126.250     151.276      13.494
  P      126.824     152.727      13.875
  C      126.631     153.161      16.426
  O      127.417     152.635      15.366
  C      127.001     152.507      17.762
  O      126.409     151.176      17.867
  C      128.517     152.343      17.968
  O      128.764     152.529      19.370
  C      128.736     150.891      17.570
  O      129.978     150.371      18.013
  C      127.487     150.263      18.180
  N      128.042     145.273      19.087
  C      128.448     146.366      19.769
  N      128.262     147.668      19.457
  C      127.570     147.783      18.310
  C      127.091     146.763      17.503
  C      127.351     145.449      17.934
  N      126.958     144.329      17.236
  N      126.446     147.283      16.389
  C      126.608     148.590      16.498
  N      127.202     148.938      17.677
  O      125.505     153.619      14.041
  O      127.764     153.284      12.859
  H      130.099     150.568      18.966
  H      125.346     154.143      13.235
  H      128.998     146.171      20.683
  H      126.311     149.323      15.757
  H      127.550     150.189      19.272
  H      128.716     150.810      16.477
  H      129.117     153.057      17.400
  H      126.579     153.117      18.574
  H      125.570     152.990      16.226
  H      127.196     143.429      17.623
  H      126.453     144.420      16.367
  H      126.764     154.248      16.465
  P      129.708     153.740      19.832
  C      128.322     155.899      19.849
  O      128.720     154.759      20.587
  O      129.927     154.496      18.432
  O      130.973     153.364      20.530
  H      129.078     154.649      17.981
  H      127.594     156.460      20.441
  H      127.859     155.600      18.905
  H      129.188     156.540      19.656
  H      124.632     150.233      12.785
  H      124.837     151.834      12.116
  H      124.247     151.638      13.749

 3  4  5  6  7  8  9  10  11  12  22  25  29  30  31  32 0
 6-311+G(2d,p)
 ****
 33  36  37 0
 6-311+G(2d,p)
 ****
 1  2  13  14  15  16  17  18  19  20  21  23  24  26 0
 3-21G
 ****
 27  28  34  35  38  39  40  41  42  43  44  45  46  47  48 0
 3-21G
 ****


