%nproc=1
%NoSave
%Mem=1900MB
#P OB98/GEN NMR

erre ene a

0 1
  C      308.675     454.866    -268.408
  O      309.365     453.682    -268.747
  H      307.878     455.061    -269.127
  H      308.230     454.742    -267.416
  H      309.370     455.714    -268.377
  P      310.070     453.645    -270.193
  C      308.717     451.609    -271.081
  O      309.978     452.115    -270.665
  C      308.927     450.584    -272.192
  O      309.444     451.230    -273.374
  C      309.926     449.491    -271.836
  O      309.349     448.454    -271.063
  C      310.305     448.997    -273.227
  O      309.264     448.159    -273.744
  C      310.385     450.314    -274.018
  N      314.948     450.390    -276.327
  C      313.806     449.716    -276.607
  N      312.634     449.764    -275.948
  C      312.694     450.630    -274.919
  C      313.781     451.393    -274.532
  C      314.964     451.247    -275.282
  N      316.136     451.911    -274.989
  N      313.467     452.149    -273.417
  C      312.203     451.852    -273.157
  N      311.707     450.917    -274.022
  O      311.627     453.831    -269.861
  O      309.563     454.631    -271.190
  H      308.994     447.550    -273.029
  H      312.127     454.045    -270.672
  H      313.855     449.043    -277.454
  H      311.619     452.283    -272.356
  H      310.071     450.198    -275.066
  H      311.219     448.408    -273.224
  H      310.818     449.905    -271.351
  H      307.947     450.158    -272.456
  H      308.102     452.437    -271.462
  H      316.957     451.623    -275.493
  H      316.191     452.435    -274.127
  H      308.211     451.145    -270.235
  P      309.874     448.276    -269.547
  C      311.853     446.604    -269.509
  O      310.447     446.780    -269.442
  O      308.508     448.215    -268.715
  O      310.780     449.363    -269.080
  H      308.625     448.598    -267.821
  H      312.086     445.563    -269.426
  H      312.318     447.139    -268.707
  H      312.215     446.977    -270.444

 6  7  8  9  10  11  12  13  14  15  25  28  32  33  34  35 0
 6-311+G(2d,p)
 ****
 36  39  40 0
 6-311+G(2d,p)
 ****
 1  2  3  4  5  16  17  18  19  20  21  22  23  24 0
 3-21G
 ****
 26  27  29  30  31  37  38  41  42  43  44  45  46  47 0
 3-21G
 ****
 48 0
 3-21G
 ****


