%nproc=1
%NoSave
%Mem=1900MB
#P OB98/GEN NMR

erre ene a

0 1
  C       82.607     -38.357      90.349
  O       82.719     -38.780      89.007
  H       81.572     -38.491      90.674
  H       82.864     -37.298      90.431
  H       83.256     -38.948      91.000
  P       84.173     -38.861      88.341
  C       86.369     -40.120      88.850
  O       84.987     -39.985      89.143
  C       86.894     -41.482      89.318
  O       86.815     -41.535      90.775
  C       86.095     -42.686      88.779
  O       87.013     -43.784      88.673
  C       85.104     -42.900      89.909
  O       84.415     -44.119      89.801
  C       86.045     -42.711      91.106
  N       85.390     -42.549      92.398
  C       84.548     -43.571      92.828
  O       84.321     -44.602      92.198
  N       83.946     -43.372      94.043
  C       84.111     -42.289      94.855
  O       83.570     -42.181      95.948
  C       85.006     -41.240      94.343
  C       85.600     -41.418      93.160
  O       84.886     -37.561      88.177
  O       83.901     -39.564      86.927
  H       83.902     -38.891      86.221
  H       83.770     -44.058      89.063
  H       83.336     -44.103      94.372
  H       85.150     -40.362      94.956
  H       86.272     -40.666      92.761
  H       86.748     -43.548      91.164
  H       84.339     -42.121      89.886
  H       85.639     -42.496      87.804
  H       87.955     -41.562      89.054
  H       86.908     -39.319      89.369
  H       86.520     -40.009      87.771
  P       87.712     -44.221      87.296
  C       89.090     -42.742      85.679
  O       88.929     -43.212      87.012
  O       86.764     -44.353      86.150
  O       88.433     -45.614      87.611
  H       88.513     -46.134      86.790
  H       89.932     -42.083      85.632
  H       88.208     -42.216      85.377
  H       89.251     -43.573      85.025

 6  7  8  9  10  11  12  13  14  15  16  27  31  32  33  34  35 0
 6-311+G(2d,p)
 ****
 36  37 0
 6-311+G(2d,p)
 ****
 1  2  3  4  5  17  18  19  20  21  22  23  24  25 0
 3-21G
 ****
 26  28  29  30  38  39  40  41  42  43  44  45 0
 3-21G
 ****


