%nproc=1
%NoSave
%Mem=1900MB
#P OB98/GEN NMR

erre ene a

0 1
  C       -5.718     -29.936      38.959
  O       -5.010     -31.115      39.283
  H       -6.334     -29.648      39.815
  H       -6.371     -30.113      38.100
  H       -5.021     -29.122      38.736
  P       -4.008     -31.684      38.167
  C       -2.064     -30.403      39.325
  O       -2.767     -30.668      38.117
  C       -0.918     -31.399      39.483
  O       -0.063     -31.338      38.320
  C       -0.008     -31.122      40.675
  O       -0.574     -31.579      41.891
  C        1.249     -31.878      40.269
  O        1.155     -33.272      40.593
  C        1.271     -31.696      38.746
  N        4.563     -30.354      35.094
  C        3.711     -31.396      35.204
  N        2.849     -31.672      36.206
  C        2.919     -30.729      37.160
  C        3.742     -29.617      37.190
  C        4.597     -29.438      36.091
  N        5.490     -28.397      35.997
  N        3.557     -28.909      38.361
  C        2.632     -29.576      39.022
  N        2.215     -30.679      38.332
  O       -4.792     -31.392      36.801
  O       -3.648     -33.125      38.309
  H        0.356     -33.609      40.141
  H       -5.295     -32.185      36.537
  H        3.726     -32.103      34.379
  H        2.243     -29.308      39.997
  H        1.539     -32.620      38.221
  H        2.130     -31.486      40.778
  H        0.225     -30.053      40.734
  H       -1.341     -32.411      39.543
  H       -2.750     -30.506      40.173
  H       -1.682     -29.378      39.296
  H        6.090     -28.344      35.189
  H        5.598     -27.770      36.783
  P       -0.251     -30.771      43.235
  C       -2.330     -29.264      42.825
  O       -0.942     -29.329      43.114
  O        1.313     -30.456      43.107
  O       -0.571     -31.505      44.495
  H        1.832     -31.084      43.643
  H       -2.637     -28.240      42.777
  H       -2.878     -29.765      43.595
  H       -2.521     -29.738      41.885

 6  7  8  9  10  11  12  13  14  15  25  28  32  33  34  35 0
 6-311+G(2d,p)
 ****
 36  37  40 0
 6-311+G(2d,p)
 ****
 1  2  3  4  5  16  17  18  19  20  21  22  23  24 0
 3-21G
 ****
 26  27  29  30  31  38  39 41  42  43  44  45  46  47  48 0
 3-21G
 ****


