%nproc=1
%NoSave
%Mem=1900MB
#P OB98/GEN NMR

erre ene a

0 1
  C      -75.443      16.963      28.877
  O      -74.718      15.911      29.494
  P      -73.539      15.162      28.705
  C      -71.056      15.762      28.411
  O      -72.392      16.255      28.451
  C      -70.173      16.667      27.555
  O      -70.618      16.583      26.179
  C      -70.229      18.135      27.964
  O      -68.934      18.716      27.779
  C      -71.179      18.769      26.963
  O      -70.908      20.172      26.804
  C      -70.924      17.913      25.720
  N      -73.425      20.160      21.839
  C      -72.270      20.474      22.462
  N      -71.677      19.847      23.502
  C      -72.377      18.758      23.859
  C      -73.569      18.308      23.315
  C      -74.103      19.066      22.255
  N      -75.277      18.736      21.613
  N      -74.008      17.170      23.963
  C      -73.082      16.928      24.867
  N      -72.071      17.852      24.837
  O      -73.969      14.420      27.486
  O      -72.882      14.192      29.790
  H      -70.018      20.249      26.402
  H      -72.630      13.343      29.380
  H      -71.750      21.345      22.077
  H      -73.102      16.110      25.571
  H      -70.064      18.282      25.145
  H      -72.211      18.665      27.317
  H      -70.562      18.274      28.999
  H      -69.147      16.291      27.592
  H      -71.073      14.760      27.977
  H      -75.518      19.263      20.788
  H      -75.688      17.831      21.804
  H      -70.665      15.695      29.431
  P      -68.641      20.060      28.621
  C      -68.401      20.498      31.173
  O      -68.835      19.633      30.150
  O      -69.450      21.216      28.125
  O      -67.062      20.211      28.421
  H      -66.638      19.346      28.233
  H      -68.581      20.019      32.138
  H      -68.964      21.436      31.142
  H      -67.331      20.704      31.075
  H      -76.182      17.333      29.556
  H      -75.923      16.596      27.994
  H      -74.771      17.754      28.615

 3  4  5  6  7  8  9  10  11  12  22  25  29  30  31  32 0
 6-311+G(2d,p)
 ****
 33  36  37 0
 6-311+G(2d,p)
 ****
 1  2  13  14  15  16  17  18  19  20  21  23  24  26 0
 3-21G
 ****
 27  28  34  35  38  39  40  41  42  43  44  45  46  47  48 0
 3-21G
 ****


