%nproc=1
%NoSave
%Mem=1900MB
#P OB98/GEN NMR

erre ene a

0 1
  C      -90.738      78.998      14.713
  O      -90.834      79.498      13.395
  H      -91.691      79.164      15.223
  H      -89.951      79.524      15.257
  H      -90.528      77.925      14.696
  P      -89.531      79.356      12.470
  C      -88.978      81.873      12.770
  O      -88.532      80.533      12.922
  C      -87.817      82.848      12.972
  O      -87.307      82.699      14.326
  C      -86.644      82.623      12.007
  O      -86.101      83.895      11.637
  C      -85.631      81.885      12.866
  O      -84.303      82.029      12.375
  C      -85.879      82.541      14.221
  N      -82.159      82.266      17.597
  C      -82.440      83.231      16.650
  N      -81.600      84.286      16.585
  N      -83.457      83.165      15.832
  C      -84.229      82.068      16.023
  C      -84.052      81.039      16.915
  C      -82.910      81.112      17.801
  O      -82.594      80.278      18.645
  N      -85.034      80.090      16.774
  C      -85.801      80.546      15.800
  N      -85.354      81.745      15.316
  O      -90.041      79.840      11.031
  O      -88.920      77.997      12.424
  H      -84.010      82.946      12.565
  H      -89.550      79.387      10.319
  H      -81.356      82.360      18.195
  H      -86.681      80.052      15.410
  H      -85.415      83.533      14.297
  H      -85.872      80.816      12.898
  H      -80.815      84.421      17.204
  H      -86.916      82.064      11.109
  H      -81.795      85.014      15.906
  H      -88.202      83.872      12.891
  H      -89.757      82.076      13.514
  H      -89.398      82.000      11.768
  P      -86.781      84.661      10.405
  C      -85.150      83.501       8.752
  O      -86.496      83.832       9.060
  O      -85.861      85.963      10.241
  O      -88.208      85.035      10.638
  H      -86.348      86.750      10.544
  H      -85.119      82.953       7.834
  H      -84.741      82.902       9.539
  H      -84.576      84.398       8.652

 6  7  8  9  10  11  12  13  14  15  26  29  33  34 0
 6-311+G(2d,p)
 ****
 36  38  39  40  41 0
 6-311+G(2d,p)
 ****
 1  2  3  4  5  16  17  18  19  20  21  22  23  24  25 0
 3-21G
 ****
 27  28  30  31  32  35  37  42  43  44  45  46  47 0
 3-21G
 ****
 48  49 0
 3-21G
 ****


