%nproc=1
%NoSave
%Mem=1900MB
#P OB98/GEN NMR

erre ene a

0 1
  C      240.206     108.398      22.464
  O      239.408     107.469      21.742
  P      239.340     105.963      22.297
  C      238.089     105.314      20.117
  O      239.169     105.034      21.000
  C      238.577     105.361      18.673
  O      239.483     106.467      18.500
  C      239.343     104.126      18.226
  O      238.478     103.065      17.868
  C      240.085     104.669      17.009
  O      239.209     104.656      15.867
  C      240.401     106.113      17.432
  N      245.238     106.755      16.080
  C      244.113     106.619      15.293
  N      244.294     106.690      13.957
  N      242.908     106.429      15.770
  C      242.871     106.419      17.124
  C      243.918     106.543      18.014
  C      245.249     106.703      17.466
  O      246.294     106.764      18.112
  N      243.481     106.497      19.311
  C      242.173     106.386      19.215
  N      241.753     106.302      17.905
  O      237.894     105.897      22.989
  O      240.424     105.586      23.249
  H      239.086     103.723      15.612
  H      237.885     105.207      23.681
  H      246.135     106.922      15.656
  H      241.492     106.361      20.054
  H      240.217     106.816      16.610
  H      240.964     104.075      16.746
  H      245.170     106.969      13.534
  H      240.069     103.813      18.989
  H      243.476     106.632      13.366
  H      237.707     105.529      18.024
  H      237.654     106.287      20.376
  H      237.321     104.544      20.242
  P      239.077     101.575      17.976
  C      237.953     101.140      15.672
  O      239.116     101.027      16.469
  O      237.886     100.752      18.659
  O      240.352     101.480      18.749
  H      238.247      99.978      19.135
  H      237.418     102.074      15.881
  H      237.294     100.293      15.865
  H      238.248     101.136      14.618
  H      240.160     109.354      21.986
  H      241.220     108.057      22.484
  H      239.838     108.481      23.465

 3  4  5  6  7  8  9  10  11  12  23  26  30  31  33  0
 6-311+G(2d,p)
 ****
 35  36  37  38 0
 6-311+G(2d,p)
 ****
 1  2  13  14  15  16  17  18  19  20  21  22  24  25  27  28  29 0
 3-21G
 ****
 32  34  39  40  41  42  43  44  45  46  47  48  49 0
 3-21G
 ****


