%nproc=1
%NoSave
%Mem=1900MB
#P OB98/GEN NMR

erre ene a

0 1
  C      -96.290    -126.450     -85.306
  O      -96.232    -125.061     -85.046
  H      -97.183    -126.657     -85.903
  H      -96.356    -127.015     -84.372
  H      -95.410    -126.768     -85.873
  P      -95.052    -124.507     -84.117
  C      -96.297    -124.933     -81.888
  O      -95.187    -125.269     -82.713
  C      -95.867    -124.823     -80.426
  O      -95.300    -126.070     -79.976
  C      -94.800    -123.765     -80.170
  O      -95.362    -122.469     -80.205
  C      -94.280    -124.217     -78.813
  O      -95.171    -123.816     -77.761
  C      -94.294    -125.757     -78.984
  N      -93.000    -126.312     -79.367
  C      -92.585    -127.450     -78.664
  O      -93.291    -127.918     -77.770
  N      -91.374    -128.011     -78.983
  C      -90.659    -127.514     -79.944
  N      -89.471    -128.119     -80.215
  C      -91.075    -126.337     -80.732
  C      -92.237    -125.786     -80.385
  O      -94.944    -123.016     -84.003
  O      -93.729    -125.147     -84.751
  H      -94.846    -124.254     -76.950
  H      -93.319    -124.527     -85.386
  H      -90.453    -125.962     -81.532
  H      -92.616    -124.916     -80.916
  H      -94.608    -126.243     -78.050
  H      -93.302    -123.795     -78.583
  H      -93.987    -123.860     -80.899
  H      -96.765    -124.631     -79.824
  H      -89.239    -128.937     -79.661
  H      -97.038    -125.733     -82.003
  H      -88.917    -127.923     -81.035
  H      -96.753    -123.992     -82.218
  P      -94.587    -121.234     -80.872
  C      -94.023    -120.380     -78.511
  O      -93.509    -120.756     -79.781
  O      -95.459    -120.151     -81.408
  O      -93.667    -121.924     -81.986
  H      -94.206    -122.162     -82.779
  H      -93.217    -120.083     -77.874
  H      -94.536    -121.211     -78.073
  H      -94.704    -119.563     -78.629

 6  7  8  9  10  11  12  13  14  15  16  26  30  31  32  33  35 0
 6-311+G(2d,p)
 ****
 37  38 0
 6-311+G(2d,p)
 ****
 1  2  3  4  5  17  18  19  20  21  22  23  24  25 0
 3-21G
 ****
 27  28  29  34  36  39  40  41  42  43  44  45  46 0
 3-21G
 ****


