%nproc=1
%NoSave
%Mem=1900MB
#P OB98/GEN NMR

erre ene a

0 1
  C      403.428    -104.868     282.347
  O      402.236    -104.099     282.277
  P      400.937    -104.787     281.624
  C      401.455    -103.572     279.386
  O      401.213    -104.817     280.044
  C      401.768    -103.803     277.908
  O      402.925    -104.653     277.772
  C      400.659    -104.490     277.125
  O      399.642    -103.579     276.721
  C      401.426    -105.003     275.919
  O      401.640    -103.933     274.983
  C      402.760    -105.427     276.555
  N      402.451    -110.143     274.604
  C      402.272    -108.933     274.045
  N      402.365    -107.721     274.636
  C      402.630    -107.843     275.947
  C      402.808    -109.023     276.658
  C      402.716    -110.219     275.932
  N      402.930    -111.462     276.491
  N      403.068    -108.749     277.987
  C      403.065    -107.442     278.072
  N      402.816    -106.842     276.863
  O      399.808    -103.661     281.786
  O      400.532    -106.082     282.249
  H      400.774    -103.495     274.848
  H      398.927    -104.073     281.769
  H      402.032    -108.926     272.984
  H      403.244    -106.876     278.979
  H      403.619    -105.199     275.909
  H      400.906    -105.802     275.385
  H      400.240    -105.341     277.686
  H      402.008    -102.829     277.455
  H      402.304    -103.073     279.855
  H      403.032    -112.248     275.874
  H      403.326    -111.495     277.430
  H      400.565    -102.934     279.492
  P      398.122    -104.031     276.982
  C      397.459    -104.710     274.567
  O      397.800    -105.136     275.873
  O      397.283    -102.749     276.513
  O      397.836    -104.412     278.396
  H      396.425    -102.717     276.970
  H      397.575    -105.553     273.875
  H      398.099    -103.892     274.231
  H      396.410    -104.388     274.547
  H      404.202    -104.285     282.801
  H      403.728    -105.152     281.360
  H      403.252    -105.746     282.933

 3  4  5  6  7  8  9  10  11  12  22  25  29  30  31  32 0
 6-311+G(2d,p)
 ****
 33  36  37 0
 6-311+G(2d,p)
 ****
 1  2  13  14  15  16  17  18  19  20  21  23  24  26 0
 3-21G
 ****
 27  28  34  35  38  39  40  41  42  43  44  45  46  47  48 0
 3-21G
 ****


