%nproc=1
%NoSave
%Mem=1900MB
#P OB98/GEN NMR

erre ene a

0 1
  C      149.156     673.260    -236.388
  O      148.196     672.459    -237.064
  P      148.299     670.869    -236.878
  C      145.766     670.944    -236.234
  O      147.080     670.464    -235.910
  C      144.952     671.155    -234.961
  O      145.522     672.231    -234.185
  C      143.506     671.550    -235.224
  O      142.733     670.428    -235.598
  C      143.112     672.149    -233.872
  O      142.655     671.128    -232.973
  C      144.439     672.764    -233.375
  N      144.442     674.230    -233.415
  C      143.825     674.866    -232.335
  O      143.337     674.187    -231.422
  N      143.769     676.240    -232.321
  C      144.282     676.906    -233.311
  N      144.196     678.262    -233.244
  C      144.903     676.274    -234.485
  C      144.940     674.941    -234.487
  O      149.579     670.689    -235.952
  O      148.394     670.096    -238.153
  H      141.759     670.890    -233.277
  H      149.991     669.811    -236.085
  H      145.303     676.885    -235.292
  H      145.381     674.395    -235.302
  H      144.647     672.463    -232.335
  H      142.301     672.876    -233.964
  H      143.450     672.333    -235.998
  H      145.005     670.231    -234.362
  H      143.750     678.675    -232.424
  H      145.265     670.206    -236.860
  H      144.575     678.876    -233.954
  H      145.863     671.873    -236.800
  P      142.018     670.457    -237.025
  C      142.243     667.916    -237.303
  O      142.611     669.179    -237.805
  O      142.761     671.672    -237.758
  O      140.529     670.609    -237.036
  H      142.339     671.856    -238.615
  H      142.576     667.145    -238.006
  H      141.166     667.833    -237.186
  H      142.736     667.731    -236.345
  H      148.971     674.293    -236.599
  H      150.138     672.998    -236.723
  H      149.082     673.092    -235.334

 3  4  5  6  7  8  9  10  11  12  13  21  23  27  28  29  30  32 0
 6-311+G(2d,p)
 ****
 34  35 0
 6-311+G(2d,p)
 ****
 1  2  14  15  16  17  18  19  20  22  24  25  26 0
 3-21G
 ****
 31  33  36  37  38  39  40  41  42  43  44  45  46 0
 3-21G
 ****


