%nproc=1
%NoSave
%Mem=1900MB
#P OB98/GEN NMR

erre ene a

0 1
  C     -159.679    -868.348     170.487
  O     -158.586    -869.127     170.966
  P     -157.218    -868.330     171.325
  C     -156.586    -869.967     173.239
  O     -156.214    -869.377     172.002
  C     -155.860    -871.315     173.423
  O     -156.292    -872.277     172.433
  C     -154.367    -871.230     173.268
  O     -153.725    -870.745     174.443
  C     -153.998    -872.699     173.044
  O     -153.916    -873.374     174.318
  C     -155.196    -873.216     172.237
  N     -153.789    -876.305     168.470
  C     -153.946    -876.568     169.817
  N     -153.725    -877.848     170.223
  N     -154.295    -875.653     170.700
  C     -154.510    -874.443     170.148
  C     -154.378    -874.055     168.840
  C     -153.961    -875.054     167.873
  O     -153.785    -874.875     166.670
  N     -154.696    -872.733     168.661
  C     -155.038    -872.317     169.862
  N     -154.934    -873.325     170.807
  O     -157.667    -867.387     172.544
  O     -156.677    -867.544     170.174
  H     -154.785    -873.251     174.764
  H     -157.103    -866.590     172.570
  H     -153.523    -877.040     167.844
  H     -155.385    -871.320     170.105
  H     -155.549    -874.190     172.586
  H     -153.016    -872.834     172.553
  H     -153.526    -878.611     169.574
  H     -154.076    -870.642     172.386
  H     -153.881    -878.060     171.196
  H     -156.135    -871.706     174.414
  H     -157.676    -870.154     173.246
  H     -156.360    -869.289     174.050
  P     -152.371    -869.894     174.255
  C     -152.880    -867.984     175.954
  O     -152.131    -869.149     175.671
  O     -152.812    -868.711     173.267
  O     -151.234    -870.685     173.724
  H     -152.038    -868.426     172.735
  H     -153.925    -868.110     175.655
  H     -152.451    -867.137     175.405
  H     -152.832    -867.802     177.022
  H     -160.513    -868.988     170.289
  H     -159.392    -867.847     169.586
  H     -159.952    -867.624     171.226

 3  4  5  6  7  8  9  10  11  12  23  26  30  31  33  0
 6-311+G(2d,p)
 ****
 35  36  37  38 0
 6-311+G(2d,p)
 ****
 1  2  13  14  15  16  17  18  19  20  21  22  24  25  27  28  29 0
 3-21G
 ****
 32  34  39  40  41  42  43  44  45  46  47  48  49 0
 3-21G
 ****


