%nproc=1
%NoSave
%Mem=1900MB
#P OB98/GEN NMR

erre ene a

0 1
  C      -12.704     504.054      25.997
  O      -13.686     504.280      27.006
  P      -15.076     504.956      26.583
  C      -14.121     507.339      26.881
  O      -14.779     506.420      26.008
  C      -13.351     508.395      26.073
  O      -14.304     509.263      25.402
  C      -12.460     509.322      26.914
  O      -11.117     508.922      27.166
  C      -12.382     510.553      26.009
  O      -11.365     510.366      25.010
  C      -13.749     510.598      25.340
  N      -15.428     515.434      25.309
  C      -14.515     514.790      24.549
  N      -14.126     513.503      24.623
  C      -14.793     512.856      25.592
  C      -15.757     513.377      26.437
  C      -16.076     514.733      26.271
  N      -16.996     515.397      27.053
  N      -16.219     512.409      27.314
  C      -15.532     511.332      26.998
  N      -14.669     511.536      25.967
  O      -16.178     504.875      27.592
  O      -15.465     504.138      25.253
  H      -11.631     509.585      24.489
  H      -16.429     504.003      25.236
  H      -14.028     515.390      23.786
  H      -15.621     510.379      27.508
  H      -13.689     510.873      24.278
  H      -12.114     511.460      26.563
  H      -12.951     509.584      27.854
  H      -12.747     507.893      25.300
  H      -13.433     506.792      27.527
  H      -17.129     516.386      26.895
  H      -17.446     514.904      27.811
  H      -14.884     507.777      27.529
  P      -10.696     508.245      28.556
  C       -9.792     510.411      29.716
  O      -10.789     509.411      29.653
  O       -9.393     507.515      28.538
  O      -11.963     507.334      28.894
  H      -12.774     507.829      29.112
  H      -10.143     511.222      30.364
  H       -9.587     510.824      28.720
  H       -8.880     509.991      30.138
  H      -11.840     503.600      26.436
  H      -12.429     504.987      25.551
  H      -13.106     503.405      25.247

 3  4  5  6  7  8  9  10  11  12  22  25  29  30  31  32 0
 6-311+G(2d,p)
 ****
 33  36  37 0
 6-311+G(2d,p)
 ****
 1  2  13  14  15  16  17  18  19  20  21  23  24  26 0
 3-21G
 ****
 27  28  34  35  38  39  40  41  42  43  44  45  46  47  48 0
 3-21G
 ****


