%nproc=1
%NoSave
%Mem=1900MB
#P OB98/GEN NMR

erre ene a

0 1
  C     -230.077    -110.940    -176.215
  O     -231.364    -110.375    -176.054
  H     -229.653    -110.569    -177.153
  H     -230.152    -112.028    -176.273
  H     -229.418    -110.650    -175.393
  P     -232.160    -110.641    -174.688
  C     -233.048    -112.993    -175.278
  O     -232.182    -112.229    -174.452
  C     -232.871    -114.492    -175.017
  O     -233.009    -114.737    -173.593
  C     -233.887    -115.373    -175.745
  O     -233.252    -116.574    -176.172
  C     -234.914    -115.687    -174.672
  O     -235.604    -116.910    -174.924
  C     -234.048    -115.721    -173.412
  N     -236.161    -117.756    -169.297
  C     -235.360    -118.331    -170.268
  N     -235.092    -119.649    -170.134
  N     -234.863    -117.673    -171.283
  C     -235.192    -116.358    -171.278
  C     -235.976    -115.670    -170.381
  C     -236.538    -116.418    -169.275
  O     -237.265    -115.968    -168.400
  N     -236.094    -114.351    -170.733
  C     -235.388    -114.236    -171.839
  N     -234.827    -115.432    -172.217
  O     -233.500    -109.981    -174.604
  O     -231.172    -110.114    -173.547
  H     -236.055    -116.810    -175.790
  H     -231.477    -109.262    -173.187
  H     -236.528    -118.313    -168.545
  H     -235.245    -113.325    -172.404
  H     -233.573    -116.698    -173.254
  H     -235.656    -114.880    -174.619
  H     -235.423    -120.212    -169.358
  H     -234.334    -114.864    -176.603
  H     -234.483    -120.087    -170.807
  H     -231.845    -114.769    -175.285
  H     -232.813    -112.771    -176.323
  H     -234.087    -112.697    -175.081
  P     -232.913    -116.766    -177.732
  C     -234.702    -118.371    -178.641
  O     -234.286    -117.017    -178.531
  O     -231.820    -117.733    -178.036
  O     -232.509    -115.279    -178.193
  H     -231.811    -115.339    -178.876
  H     -235.620    -118.419    -179.188
  H     -234.848    -118.780    -177.663
  H     -233.951    -118.934    -179.155

 6  7  8  9  10  11  12  13  14  15  26  29  33  34 0
 6-311+G(2d,p)
 ****
 36  38  39  40  41 0
 6-311+G(2d,p)
 ****
 1  2  3  4  5  16  17  18  19  20  21  22  23  24  25 0
 3-21G
 ****
 27  28  30  31  32  35  37  42  43  44  45  46  47 0
 3-21G
 ****
 48  49 0
 3-21G
 ****


