%nproc=1
%NoSave
%Mem=1900MB
#P OB98/GEN NMR

erre ene a

0 1
  C       82.046     714.086    -501.332
  O       82.683     713.789    -500.110
  H       81.764     713.146    -501.813
  H       82.729     714.620    -501.998
  H       81.146     714.678    -501.163
  P       83.248     714.988    -499.205
  C       80.946     714.924    -498.071
  O       81.940     715.755    -498.656
  C       79.813     715.761    -497.477
  O       80.317     716.538    -496.355
  C       79.184     716.750    -498.474
  O       77.759     716.669    -498.402
  C       79.644     718.107    -497.965
  O       78.782     719.171    -498.362
  C       79.723     717.844    -496.460
  N       80.491     718.863    -495.763
  C       79.788     720.003    -495.360
  O       78.580     720.099    -495.593
  N       80.468     721.023    -494.756
  C       81.757     720.941    -494.607
  N       82.378     722.003    -494.025
  C       82.545     719.770    -495.039
  C       81.853     718.777    -495.600
  O       84.252     715.859    -499.880
  O       83.817     714.277    -497.888
  H       77.884     718.996    -498.000
  H       84.475     714.874    -497.462
  H       83.614     719.747    -494.901
  H       82.345     717.874    -495.951
  H       78.718     717.799    -496.015
  H       80.643     718.323    -498.357
  H       79.499     716.579    -499.500
  H       79.058     715.081    -497.062
  H       81.796     722.785    -493.751
  H       81.411     714.309    -497.295
  H       83.373     722.058    -493.881
  H       80.536     714.272    -498.851
  P       77.000     716.351    -499.782
  C       74.806     715.347    -498.825
  O       76.014     715.108    -499.530
  O       78.158     715.748    -500.712
  O       76.366     717.553    -500.403
  H       78.372     716.386    -501.418
  H       74.258     714.432    -498.735
  H       74.218     716.064    -499.358
  H       75.031     715.725    -497.850

 6  7  8  9  10  11  12  13  14  15  16  26  30  31  32  33  35 0
 6-311+G(2d,p)
 ****
 37  38 0
 6-311+G(2d,p)
 ****
 1  2  3  4  5  17  18  19  20  21  22  23  24  25 0
 3-21G
 ****
 27  28  29  34  36  39  40  41  42  43  44  45  46 0
 3-21G
 ****


