%nproc=1
%NoSave
%Mem=1900MB
#P OB98/GEN NMR

erre ene a

0 1
  C       72.877     -77.335     224.224
  O       73.071     -76.203     225.050
  H       72.579     -76.995     223.229
  H       72.087     -77.968     224.636
  H       73.805     -77.904     224.141
  P       73.531     -76.491     226.560
  C       76.057     -75.987     226.156
  O       75.066     -76.952     226.474
  C       77.351     -76.677     225.705
  O       77.121     -77.295     224.403
  C       78.540     -75.719     225.535
  O       79.746     -76.466     225.785
  C       78.454     -75.374     224.058
  O       79.640     -74.762     223.610
  C       78.108     -76.752     223.498
  N       79.328     -76.593     218.533
  C       80.092     -76.687     219.647
  N       79.694     -76.737     220.933
  C       78.353     -76.699     221.020
  C       77.444     -76.611     219.978
  C       77.983     -76.551     218.680
  N       77.210     -76.444     217.546
  N       76.148     -76.594     220.458
  C       76.274     -76.670     221.769
  N       77.585     -76.728     222.152
  O       72.749     -77.836     226.932
  O       73.256     -75.397     227.535
  H       79.825     -73.945     224.121
  H       71.921     -77.621     227.401
  H       81.164     -76.725     219.477
  H       75.457     -76.678     222.481
  H       78.974     -77.425     223.507
  H       77.642     -74.663     223.872
  H       78.503     -74.856     226.204
  H       77.585     -77.489     226.403
  H       76.251     -75.382     227.048
  H       75.691     -75.339     225.352
  H       77.673     -76.391     216.654
  H       76.205     -76.397     217.639
  P       80.235     -76.676     227.304
  C       79.874     -79.263     227.451
  O       79.502     -77.969     227.907
  O       79.476     -75.483     228.065
  O       81.711     -76.594     227.525
  H       79.994     -75.218     228.851
  H       79.287     -80.002     227.956
  H       80.911     -79.429     227.657
  H       79.704     -79.332     226.397

 6  7  8  9  10  11  12  13  14  15  25  28  32  33  34  35 0
 6-311+G(2d,p)
 ****
 36  37  40 0
 6-311+G(2d,p)
 ****
 1  2  3  4  5  16  17  18  19  20  21  22  23  24 0
 3-21G
 ****
 26  27  29  30  31  38  39 41  42  43  44  45  46  47  48 0
 3-21G
 ****


