%nproc=1
%NoSave
%Mem=1900MB
#P OB98/GEN NMR

erre ene a

0 1
  C      304.013    -293.827    -123.868
  O      304.311    -292.685    -123.063
  P      305.865    -292.339    -122.867
  C      305.533    -289.776    -123.089
  O      305.973    -290.852    -122.274
  C      305.115    -288.582    -122.224
  O      303.767    -288.707    -121.733
  C      305.991    -288.388    -120.998
  O      307.200    -287.742    -121.359
  C      305.097    -287.533    -120.108
  O      305.199    -286.135    -120.452
  C      303.690    -288.062    -120.436
  N      299.534    -289.385    -117.854
  C      299.763    -288.285    -118.659
  N      298.730    -287.432    -118.820
  N      300.904    -288.048    -119.255
  C      301.846    -288.988    -119.008
  C      301.728    -290.132    -118.252
  C      300.463    -290.382    -117.596
  O      300.202    -291.350    -116.892
  N      302.883    -290.873    -118.284
  C      303.728    -290.116    -118.952
  N      303.133    -288.991    -119.467
  O      306.403    -292.197    -124.369
  O      306.618    -293.383    -122.113
  H      304.985    -286.024    -121.395
  H      306.988    -292.947    -124.584
  H      298.640    -289.514    -117.412
  H      304.774    -290.342    -119.114
  H      302.966    -287.244    -120.526
  H      305.374    -287.612    -119.055
  H      297.827    -287.553    -118.392
  H      306.185    -289.355    -120.515
  H      298.875    -286.622    -119.412
  H      305.160    -287.687    -122.860
  H      304.694    -290.095    -123.709
  H      306.342    -289.496    -123.770
  P      308.375    -287.686    -120.271
  C      310.212    -288.839    -121.695
  O      309.762    -287.655    -121.064
  O      308.334    -289.147    -119.620
  O      308.207    -286.628    -119.232
  H      308.413    -289.074    -118.650
  H      310.815    -288.570    -122.564
  H      309.380    -289.468    -122.017
  H      310.839    -289.400    -120.992
  H      302.952    -293.956    -123.925
  H      304.455    -294.697    -123.430
  H      304.408    -293.683    -124.852

 3  4  5  6  7  8  9  10  11  12  23  26  30  31 0
 6-311+G(2d,p)
 ****
 33  35  36  37  38 0
 6-311+G(2d,p)
 ****
 1  2  13  14  15  16  17  18  19  20  21  22  24  25 0
 3-21G
 ****
 27  28  29  32  34  39  40  41  42  43  44  45  46  47  48  49 0
 3-21G
 ****


