%nproc=1
%NoSave
%Mem=1900MB
#P OB98/GEN NMR

erre ene a

0 1
  C      102.835      17.570     -26.670
  O      103.100      17.265     -28.024
  H      103.733      18.007     -26.227
  H      102.583      16.660     -26.122
  H      102.018      18.293     -26.587
  P      101.888      16.799     -28.964
  C      102.651      14.350     -29.232
  O      101.672      15.233     -28.699
  C      102.003      13.019     -29.606
  O      101.381      12.426     -28.446
  C      100.902      13.138     -30.653
  O      101.449      13.328     -31.944
  C      100.178      11.814     -30.451
  O      100.872      10.746     -31.111
  C      100.251      11.655     -28.913
  N       99.022      12.063     -28.233
  C       97.956      11.173     -28.295
  O       98.002      10.111     -28.914
  N       96.819      11.554     -27.631
  C       96.625      12.749     -27.001
  O       95.566      13.065     -26.466
  C       97.774      13.665     -26.997
  C       98.902      13.286     -27.603
  O      101.996      17.183     -30.402
  O      100.602      17.460     -28.273
  H      100.408       9.921     -30.869
  H      100.349      18.268     -28.756
  H       96.031      10.927     -27.675
  H       97.654      14.624     -26.511
  H       99.758      13.951     -27.616
  H      100.455      10.610     -28.650
  H       99.163      11.825     -30.851
  H      100.218      13.955     -30.394
  H      102.794      12.339     -29.948
  H      103.423      14.181     -28.472
  H      103.110      14.818     -30.108
  P      100.837      14.420     -32.939
  C       99.376      12.685     -34.129
  O       99.386      13.902     -33.393
  O      101.730      14.831     -34.062
  O      100.496      15.663     -31.989
  H      101.148      16.377     -32.132
  H       98.368      12.429     -34.382
  H       99.804      11.905     -33.534
  H       99.949      12.805     -35.025

 6  7  8  9  10  11  12  13  14  15  16  26  31  32  33  34  35 0
 6-311+G(2d,p)
 ****
 36  37 0
 6-311+G(2d,p)
 ****
 1  2  3  4  5  17  18  19  20  21  22  23  24  25 0
 3-21G
 ****
 27  28  29  30  38  39  40  41  42  43  44  45 0
 3-21G
 ****


