%nproc=1
%NoSave
%Mem=1900MB
#P OB98/GEN NMR

erre ene a

0 1
  C      358.767     397.921    -645.301
  O      357.785     397.184    -644.608
  H      359.729     397.412    -645.187
  H      358.853     398.920    -644.874
  H      358.536     397.991    -646.365
  P      356.239     397.534    -644.846
  C      355.929     395.081    -645.564
  O      355.670     396.442    -645.869
  C      355.039     394.148    -646.392
  O      353.694     394.155    -645.825
  C      354.916     394.558    -647.859
  O      354.721     393.365    -648.626
  C      353.641     395.381    -647.858
  O      353.103     395.536    -649.150
  C      352.788     394.574    -646.865
  N      351.662     395.343    -646.340
  C      350.391     394.845    -646.613
  O      350.191     393.822    -647.298
  N      349.340     395.570    -646.127
  C      349.427     396.759    -645.457
  O      348.445     397.374    -645.074
  C      350.801     397.255    -645.228
  C      351.831     396.535    -645.676
  O      355.951     398.958    -645.224
  O      355.526     397.138    -643.473
  H      352.919     394.656    -649.553
  H      354.750     397.707    -643.315
  H      348.407     395.216    -646.317
  H      350.910     398.202    -644.712
  H      352.851     396.875    -645.521
  H      352.387     393.675    -647.346
  H      353.833     396.386    -647.467
  H      355.772     395.116    -648.234
  H      355.413     393.118    -646.295
  H      355.725     394.934    -644.490
  H      356.985     394.849    -645.758
  P      355.423     393.144    -650.064
  C      356.982     391.689    -648.620
  O      356.820     392.400    -649.846
  O      355.504     394.389    -650.890
  O      354.527     392.027    -650.788
  H      354.566     392.146    -651.757
  H      357.952     391.238    -648.595
  H      356.233     390.928    -648.547
  H      356.883     392.367    -647.798

 6  7  8  9  10  11  12  13  14  15  16  26  31  32  33  34  35 0
 6-311+G(2d,p)
 ****
 36  37 0
 6-311+G(2d,p)
 ****
 1  2  3  4  5  17  18  19  20  21  22  23  24  25 0
 3-21G
 ****
 27  28  29  30  38  39  40  41  42  43  44  45 0
 3-21G
 ****


