%nproc=1
%NoSave
%Mem=1900MB
#P OB98/GEN NMR

erre ene a

0 1
  C      -76.427    -146.233       8.030
  O      -76.401    -145.041       7.271
  P      -75.594    -143.760       7.792
  C      -74.993    -143.327       5.320
  O      -75.505    -142.772       6.529
  C      -74.965    -142.277       4.207
  O      -74.294    -141.084       4.654
  C      -74.226    -142.723       2.954
  O      -75.028    -143.609       2.186
  C      -73.946    -141.383       2.287
  O      -75.086    -140.922       1.541
  C      -73.682    -140.468       3.501
  N      -72.260    -140.221       3.710
  C      -71.588    -139.580       2.660
  O      -72.190    -139.288       1.625
  N      -70.245    -139.330       2.791
  C      -69.622    -139.708       3.867
  N      -68.290    -139.446       3.932
  C      -70.284    -140.414       4.981
  C      -71.591    -140.638       4.837
  O      -74.295    -144.053       8.466
  O      -76.654    -143.025       8.743
  H      -74.820    -140.075       1.131
  H      -76.758    -143.505       9.601
  H      -69.723    -140.720       5.850
  H      -72.154    -141.153       5.604
  H      -74.181    -139.498       3.367
  H      -73.106    -141.440       1.583
  H      -73.277    -143.199       3.229
  H      -76.003    -142.014       3.961
  H      -67.868    -138.987       3.133
  H      -75.638    -144.153       5.019
  H      -67.705    -139.726       4.708
  H      -73.989    -143.724       5.502
  P      -74.475    -145.060       1.808
  C      -76.890    -145.512       1.072
  O      -75.522    -145.736       0.800
  O      -74.067    -145.911       2.966
  O      -73.218    -144.748       0.864
  H      -72.477    -145.325       1.124
  H      -77.470    -145.721       0.167
  H      -77.071    -144.475       1.376
  H      -77.221    -146.184       1.863
  H      -77.013    -146.968       7.520
  H      -76.858    -146.036       8.989
  H      -75.429    -146.597       8.156

 3  4  5  6  7  8  9  10  11  12  13  23  27  28  29  30  32 0
 6-311+G(2d,p)
 ****
 34  35 0
 6-311+G(2d,p)
 ****
 1  2  14  15  16  17  18  19  20  21  22  24  25  26 0
 3-21G
 ****
 31  33  36  37  38  39  40  41  42  43  44  45  46 0
 3-21G
 ****


