%nproc=1
%NoSave
%Mem=1900MB
#P OB98/GEN NMR

erre ene a

0 1
  C      -40.673     574.050    -480.754
  O      -41.309     573.579    -479.580
  H      -40.158     574.987    -480.520
  H      -41.415     574.246    -481.530
  H      -39.937     573.326    -481.113
  P      -41.966     572.119    -479.593
  C      -41.492     571.763    -477.079
  O      -42.484     571.828    -478.100
  C      -42.064     571.059    -475.846
  O      -43.045     571.899    -475.207
  C      -42.780     569.747    -476.159
  O      -41.851     568.710    -476.420
  C      -43.601     569.568    -474.889
  O      -42.792     569.033    -473.826
  C      -44.020     571.025    -474.579
  N      -45.368     571.347    -475.027
  C      -46.416     570.729    -474.345
  O      -46.235     569.923    -473.425
  N      -47.677     571.062    -474.754
  C      -47.995     571.861    -475.820
  O      -49.149     572.081    -476.180
  C      -46.853     572.463    -476.527
  C      -45.611     572.180    -476.103
  O      -41.130     571.030    -480.188
  O      -43.331     572.325    -480.406
  H      -42.036     569.638    -473.723
  H      -43.213     572.016    -481.325
  H      -48.447     570.614    -474.281
  H      -47.062     573.094    -477.380
  H      -44.755     572.609    -476.620
  H      -43.957     571.220    -473.499
  H      -44.440     568.886    -475.025
  H      -43.470     569.878    -477.003
  H      -41.242     570.895    -475.136
  H      -41.191     572.777    -476.809
  H      -40.620     571.223    -477.468
  P      -41.578     568.221    -477.919
  C      -39.110     567.526    -477.902
  O      -40.454     567.069    -477.853
  O      -41.299     569.304    -478.905
  O      -42.896     567.409    -478.307
  H      -43.443     567.936    -478.932
  H      -38.446     566.688    -477.852
  H      -38.924     568.178    -477.074
  H      -38.947     568.056    -478.817

 6  7  8  9  10  11  12  13  14  15  16  26  31  32  33  34  35 0
 6-311+G(2d,p)
 ****
 36  37 0
 6-311+G(2d,p)
 ****
 1  2  3  4  5  17  18  19  20  21  22  23  24  25 0
 3-21G
 ****
 27  28  29  30  38  39  40  41  42  43  44  45 0
 3-21G
 ****


