%nproc=1
%NoSave
%Mem=1900MB
#P OB98/GEN NMR

erre ene a

0 1
  C       29.850    -541.509     939.271
  O       31.017    -541.977     938.580
  P       32.403    -541.239     938.881
  C       33.675    -543.363     939.694
  O       33.190    -542.061     940.008
  C       34.919    -543.678     940.524
  O       36.082    -543.015     939.993
  C       34.811    -543.208     941.962
  O       34.014    -544.094     942.725
  C       36.275    -543.167     942.397
  O       36.691    -544.428     942.952
  C       37.025    -542.880     941.074
  N       37.657    -541.569     941.066
  C       39.055    -541.567     941.073
  O       39.681    -542.635     941.107
  N       39.708    -540.352     941.066
  C       39.030    -539.252     941.074
  N       39.728    -538.087     941.077
  C       37.548    -539.213     941.100
  C       36.936    -540.400     941.092
  O       31.948    -539.904     939.648
  O       33.204    -540.916     937.658
  H       36.003    -544.671     943.602
  H       32.558    -539.173     939.444
  H       37.021    -538.270     941.120
  H       35.852    -540.465     941.110
  H       37.806    -543.631     940.905
  H       36.446    -542.417     943.172
  H       34.393    -542.189     941.992
  H       35.094    -544.766     940.497
  H       40.739    -538.154     941.064
  H       33.910    -543.432     938.629
  H       39.294    -537.172     941.094
  H       32.881    -544.096     939.878
  P       33.124    -543.479     943.906
  C       30.903    -544.448     943.054
  O       31.668    -543.267     943.272
  O       33.669    -541.964     943.974
  O       33.187    -544.156     945.230
  H       33.274    -541.498     944.740
  H       29.875    -544.153     942.821
  H       30.907    -545.078     943.952
  H       31.313    -545.005     942.204
  H       29.002    -542.091     938.974
  H       29.680    -540.481     939.028
  H       29.997    -541.606     940.326

 3  4  5  6  7  8  9  10  11  12  13  21  23  27  28  29  30  32 0
 6-311+G(2d,p)
 ****
 34  35 0
 6-311+G(2d,p)
 ****
 1  2  14  15  16  17  18  19  20  22  24  25  26 0
 3-21G
 ****
 31  33  36  37  38  39  40  41  42  43  44  45  46 0
 3-21G
 ****


