%nproc=1
%NoSave
%Mem=1900MB
#P OB98/GEN NMR

erre ene a

0 1
  C     -186.950     158.759     381.381
  O     -186.912     160.010     382.033
  H     -186.040     158.642     380.784
  H     -187.818     158.706     380.717
  H     -186.991     157.949     382.116
  P     -188.150     160.366     382.985
  C     -189.478     161.087     380.870
  O     -189.048     161.426     382.184
  C     -190.325     162.224     380.300
  O     -191.403     162.540     381.218
  C     -189.564     163.521     380.096
  O     -188.764     163.509     378.925
  C     -190.699     164.530     380.045
  O     -191.281     164.604     378.734
  C     -191.711     163.946     381.040
  N     -194.552     166.198     384.645
  C     -194.889     165.531     383.505
  N     -194.068     164.954     382.611
  C     -192.780     165.083     382.989
  C     -192.292     165.728     384.111
  C     -193.241     166.308     384.960
  N     -192.903     167.012     386.099
  N     -190.904     165.691     384.122
  C     -190.578     165.021     383.037
  N     -191.667     164.633     382.323
  O     -187.479     161.236     384.150
  O     -188.891     159.187     383.530
  H     -190.541     164.740     378.111
  H     -187.334     160.677     384.934
  H     -195.951     165.464     383.304
  H     -189.558     164.802     382.729
  H     -192.747     164.009     380.671
  H     -190.346     165.529     380.305
  H     -188.941     163.738     380.977
  H     -190.776     161.885     379.349
  H     -190.078     160.173     380.907
  H     -188.602     160.908     380.243
  H     -193.630     167.451     386.630
  H     -191.925     167.195     386.291
  P     -187.171     163.469     379.100
  C     -186.455     165.966     379.392
  O     -186.599     164.847     378.529
  O     -186.688     162.377     378.038
  O     -186.703     163.150     380.484
  H     -185.924     161.878     378.391
  H     -186.061     166.794     378.840
  H     -185.786     165.718     380.189
  H     -187.410     166.229     379.797

 6  7  8  9  10  11  12  13  14  15  25  28  32  33  34  35 0
 6-311+G(2d,p)
 ****
 36  37  40 0
 6-311+G(2d,p)
 ****
 1  2  3  4  5  16  17  18  19  20  21  22  23  24 0
 3-21G
 ****
 26  27  29  30  31  38  39 41  42  43  44  45  46  47  48 0
 3-21G
 ****


