%nproc=1
%NoSave
%Mem=1900MB
#P OB98/GEN NMR

erre ene a

0 1
  C      -48.751    -517.040    -252.317
  O      -49.139    -515.719    -252.688
  P      -49.905    -515.345    -254.038
  C      -49.223    -514.978    -256.548
  O      -48.839    -515.377    -255.236
  C      -48.056    -514.378    -257.362
  O      -47.722    -513.066    -256.833
  C      -46.802    -515.237    -257.212
  O      -46.622    -516.388    -258.022
  C      -45.648    -514.247    -257.279
  O      -45.114    -514.113    -258.596
  C      -46.286    -512.933    -256.822
  N      -43.079    -510.003    -254.122
  C      -43.152    -510.185    -255.486
  N      -42.224    -509.544    -256.233
  N      -44.047    -510.941    -256.067
  C      -44.855    -511.588    -255.204
  C      -44.873    -511.508    -253.828
  C      -43.915    -510.621    -253.193
  O      -43.813    -510.410    -251.990
  N      -45.822    -512.328    -253.284
  C      -46.369    -512.927    -254.323
  N      -45.821    -512.505    -255.514
  O      -50.800    -514.152    -253.967
  O      -50.830    -516.636    -254.317
  H      -45.843    -513.852    -259.189
  H      -51.642    -516.310    -254.752
  H      -42.386    -509.390    -253.727
  H      -47.166    -513.661    -254.270
  H      -46.045    -512.116    -257.520
  H      -44.818    -514.580    -256.639
  H      -41.435    -509.050    -255.840
  H      -46.799    -515.624    -256.180
  H      -42.136    -509.850    -257.203
  H      -48.352    -514.222    -258.401
  H      -50.026    -514.245    -256.433
  H      -49.650    -515.830    -257.088
  P      -46.735    -517.911    -257.545
  C      -45.340    -519.561    -256.161
  O      -45.370    -518.300    -256.814
  O      -46.649    -518.752    -258.909
  O      -47.978    -518.251    -256.785
  H      -46.962    -519.661    -258.765
  H      -44.507    -519.578    -255.457
  H      -45.200    -520.353    -256.906
  H      -46.271    -519.736    -255.616
  H      -48.255    -517.013    -251.369
  H      -48.087    -517.437    -253.056
  H      -49.620    -517.661    -252.248

 3  4  5  6  7  8  9  10  11  12  23  26  30  31 0
 6-311+G(2d,p)
 ****
 33  35  36  37  38 0
 6-311+G(2d,p)
 ****
 1  2  13  14  15  16  17  18  19  20  21  22  24  25 0
 3-21G
 ****
 27  28  29  32  34  39  40  41  42  43  44  45  46  47  48  49 0
 3-21G
 ****


