%nproc=1
%NoSave
%Mem=1900MB
#P OB98/GEN NMR

erre ene a

0 1
  C      -14.306     104.852    -258.019
  O      -15.234     105.693    -258.679
  H      -13.708     105.458    -257.333
  H      -13.631     104.376    -258.737
  H      -14.832     104.085    -257.443
  P      -16.126     105.063    -259.852
  C      -14.955     105.715    -262.067
  O      -15.102     104.737    -261.042
  C      -13.968     106.792    -261.625
  O      -12.828     106.191    -260.980
  C      -13.408     107.603    -262.784
  O      -14.360     108.541    -263.252
  C      -12.169     108.196    -262.146
  O      -12.489     109.332    -261.334
  C      -11.676     107.017    -261.277
  N      -10.624     106.237    -261.921
  C       -9.413     106.903    -262.146
  O       -9.273     108.075    -261.799
  N       -8.402     106.222    -262.775
  C       -8.571     104.989    -263.136
  N       -7.528     104.376    -263.757
  C       -9.827     104.248    -262.908
  C      -10.801     104.925    -262.305
  O      -17.336     105.840    -260.273
  O      -16.509     103.610    -259.296
  H      -12.886     109.990    -261.942
  H      -17.342     103.648    -258.789
  H       -9.922     103.217    -263.219
  H      -11.756     104.453    -262.098
  H      -11.290     107.381    -260.315
  H      -11.444     108.518    -262.896
  H      -13.089     106.938    -263.593
  H      -14.468     107.439    -260.894
  H       -6.689     104.928    -263.905
  H      -15.942     106.155    -262.240
  H       -7.515     103.397    -264.002
  H      -14.613     105.247    -262.998
  P      -14.232     109.170    -264.721
  C      -13.652     111.684    -264.707
  O      -13.153     110.354    -264.584
  O      -15.522     109.551    -265.367
  O      -13.422     108.046    -265.527
  H      -13.997     107.268    -265.738
  H      -12.846     112.379    -264.599
  H      -14.382     111.863    -263.945
  H      -14.103     111.808    -265.669

 6  7  8  9  10  11  12  13  14  15  16  26  30  31  32  33  35 0
 6-311+G(2d,p)
 ****
 37  38 0
 6-311+G(2d,p)
 ****
 1  2  3  4  5  17  18  19  20  21  22  23  24  25 0
 3-21G
 ****
 27  28  29  34  36  39  40  41  42  43  44  45  46 0
 3-21G
 ****


