%nproc=1
%NoSave
%Mem=1900MB
#P OB98/GEN NMR

erre ene a

0 1
  C       80.512     345.894      69.433
  O       80.845     344.655      70.029
  H       80.190     345.710      68.404
  H       81.380     346.557      69.413
  H       79.692     346.369      69.976
  P       81.427     344.659      71.522
  C       83.801     344.620      72.550
  O       83.011     344.856      71.389
  C       84.899     343.602      72.255
  O       84.321     342.320      71.932
  C       85.786     343.967      71.070
  O       86.692     344.991      71.424
  C       86.412     342.616      70.763
  O       87.473     342.320      71.682
  C       85.210     341.668      70.993
  N       84.500     341.321      69.765
  C       85.014     340.237      69.043
  O       86.018     339.648      69.441
  N       84.383     339.870      67.878
  C       83.314     340.491      67.495
  N       82.738     340.075      66.336
  C       82.720     341.612      68.246
  C       83.362     341.979      69.353
  O       81.017     343.512      72.393
  O       80.936     346.060      72.122
  H       88.222     342.897      71.428
  H       80.097     345.949      72.607
  H       81.821     342.097      67.892
  H       82.992     342.796      69.964
  H       85.543     340.736      71.468
  H       86.835     342.575      69.760
  H       85.171     344.266      70.214
  H       85.495     343.474      73.168
  H       83.170     339.286      65.866
  H       83.126     344.233      73.322
  H       81.822     340.372      66.029
  H       84.241     345.555      72.913
  P       87.756     345.573      70.373
  C       89.884     344.683      69.240
  O       88.798     344.382      70.104
  O       88.373     346.876      70.750
  O       86.935     345.629      69.000
  H       86.325     346.410      68.994
  H       90.507     343.819      69.136
  H       90.456     345.488      69.653
  H       89.507     344.968      68.280

 6  7  8  9  10  11  12  13  14  15  16  26  30  31  32  33  35 0
 6-311+G(2d,p)
 ****
 37  38 0
 6-311+G(2d,p)
 ****
 1  2  3  4  5  17  18  19  20  21  22  23  24  25 0
 3-21G
 ****
 27  28  29  34  36  39  40  41  42  43  44  45  46 0
 3-21G
 ****


