%nproc=1
%NoSave
%Mem=1900MB
#P OB98/GEN NMR

erre ene a

0 1
  C      423.989    -733.232     582.532
  O      425.369    -733.185     582.222
  H      423.677    -732.241     582.879
  H      423.809    -733.954     583.328
  H      423.411    -733.495     581.640
  P      426.032    -734.555     581.714
  C      425.400    -736.897     582.645
  O      425.892    -735.596     582.931
  C      424.746    -737.505     583.882
  O      423.597    -736.721     584.293
  C      424.258    -738.934     583.696
  O      425.315    -739.865     583.862
  C      423.211    -739.035     584.795
  O      423.809    -739.295     586.083
  C      422.571    -737.643     584.758
  N      417.539    -738.039     584.654
  C      418.418    -738.145     585.713
  N      417.880    -738.449     586.912
  N      419.709    -737.972     585.602
  C      420.106    -737.704     584.334
  C      419.333    -737.558     583.212
  C      417.893    -737.715     583.348
  O      417.065    -737.580     582.457
  N      420.102    -737.271     582.108
  C      421.340    -737.274     582.569
  N      421.398    -737.549     583.912
  O      427.603    -734.229     581.693
  O      425.554    -735.050     580.386
  H      424.486    -738.625     586.266
  H      428.027    -734.748     580.985
  H      416.550    -738.171     584.799
  H      422.221    -737.085     581.970
  H      422.265    -737.300     585.761
  H      422.504    -739.855     584.612
  H      416.980    -738.911     586.990
  H      423.773    -739.059     582.717
  H      418.521    -738.551     587.692
  H      425.478    -737.450     584.703
  H      426.235    -737.530     582.326
  H      424.663    -736.827     581.828
  P      424.992    -741.419     583.610
  C      422.983    -742.956     584.233
  O      423.715    -741.766     584.516
  O      426.197    -742.172     584.351
  O      424.887    -741.803     582.167
  H      426.255    -743.097     584.034
  H      422.167    -743.045     584.920
  H      423.628    -743.804     584.334
  H      422.605    -742.913     583.233

 6  7  8  9  10  11  12  13  14  15  26  29  33  34 0
 6-311+G(2d,p)
 ****
 36  38  39  40  41 0
 6-311+G(2d,p)
 ****
 1  2  3  4  5  16  17  18  19  20  21  22  23  24  25 0
 3-21G
 ****
 27  28  30  31  32  35  37  42  43  44  45  46  47 0
 3-21G
 ****
 48  49 0
 3-21G
 ****


