%nproc=1
%NoSave
%Mem=1900MB
#P OB98/GEN NMR

erre ene a

0 1
  C      264.281    -376.864    -214.774
  O      264.914    -376.703    -216.042
  P      266.517    -376.670    -216.097
  C      268.372    -378.138    -215.065
  O      267.072    -378.106    -215.647
  C      268.938    -379.570    -215.078
  O      268.042    -380.435    -214.327
  C      269.054    -380.201    -216.471
  O      270.259    -380.008    -217.205
  C      268.994    -381.692    -216.125
  O      270.301    -382.153    -215.732
  C      268.045    -381.746    -214.927
  N      263.312    -382.534    -213.147
  C      264.457    -382.150    -212.537
  N      265.677    -381.966    -213.085
  C      265.648    -382.203    -214.405
  C      264.556    -382.599    -215.163
  C      263.344    -382.770    -214.479
  N      262.182    -383.171    -215.096
  N      264.916    -382.756    -216.485
  C      266.203    -382.478    -216.518
  N      266.692    -382.127    -215.289
  O      267.170    -375.497    -215.445
  O      266.806    -376.676    -217.675
  H      270.616    -381.526    -215.049
  H      267.574    -376.106    -217.859
  H      264.382    -381.968    -211.468
  H      266.824    -382.524    -217.406
  H      268.383    -382.455    -214.165
  H      268.690    -382.304    -216.976
  H      268.194    -379.932    -217.097
  H      269.917    -379.574    -214.584
  H      268.319    -377.774    -214.039
  H      261.366    -383.314    -214.529
  H      262.200    -383.409    -216.082
  H      268.995    -377.436    -215.620
  P      270.344    -378.951    -218.405
  C      270.957    -376.408    -218.383
  O      271.129    -377.684    -217.812
  O      269.038    -378.625    -219.053
  O      271.420    -379.616    -219.382
  H      272.324    -379.637    -219.026
  H      271.400    -375.661    -217.716
  H      269.895    -376.178    -218.515
  H      271.470    -376.361    -219.348
  H      263.219    -376.866    -214.903
  H      264.560    -376.056    -214.131
  H      264.589    -377.791    -214.337

 3  4  5  6  7  8  9  10  11  12  22  25  29  30  31  32 0
 6-311+G(2d,p)
 ****
 33  36  37 0
 6-311+G(2d,p)
 ****
 1  2  13  14  15  16  17  18  19  20  21  23  24  26 0
 3-21G
 ****
 27  28  34  35  38  39  40  41  42  43  44  45  46  47  48 0
 3-21G
 ****


