%nproc=1
%NoSave
%Mem=1900MB
#P OB98/GEN NMR

erre ene a

0 1
  C     -825.046     820.745     -15.514
  O     -826.231     821.540     -15.552
  P     -827.278     821.224     -16.725
  C     -829.460     820.676     -15.439
  O     -828.358     820.172     -16.175
  C     -830.355     819.553     -14.907
  O     -831.068     818.903     -15.991
  C     -829.590     818.470     -14.147
  O     -830.444     817.985     -13.109
  C     -829.427     817.372     -15.189
  O     -829.174     816.112     -14.576
  C     -830.770     817.494     -15.930
  N     -830.741     816.888     -17.263
  C     -831.200     815.569     -17.371
  O     -831.543     814.950     -16.371
  N     -831.228     814.985     -18.614
  C     -830.777     815.630     -19.640
  N     -830.828     814.988     -20.843
  C     -830.229     816.997     -19.563
  C     -830.242     817.558     -18.354
  O     -826.418     820.373     -17.773
  O     -827.851     822.450     -17.366
  H     -829.846     815.971     -13.877
  H     -826.523     820.737     -18.672
  H     -829.850     817.485     -20.446
  H     -829.866     818.559     -18.197
  H     -831.569     817.003     -15.359
  H     -828.597     817.611     -15.858
  H     -828.645     818.817     -13.722
  H     -831.107     820.005     -14.245
  H     -831.220     814.058     -20.857
  H     -830.058     821.335     -16.070
  H     -830.501     815.393     -21.704
  H     -829.082     821.299     -14.619
  P     -830.158     818.464     -11.606
  C     -832.509     819.488     -11.732
  O     -831.164     819.695     -11.378
  O     -828.753     819.225     -11.776
  O     -830.099     817.435     -10.534
  H     -828.432     819.516     -10.903
  H     -833.098     820.354     -11.413
  H     -832.899     818.590     -11.249
  H     -832.598     819.392     -12.823
  H     -824.436     821.054     -14.691
  H     -824.503     820.870     -16.427
  H     -825.311     819.715     -15.395

 3  4  5  6  7  8  9  10  11  12  13  21  23  27  28  29  30  32 0
 6-311+G(2d,p)
 ****
 34  35 0
 6-311+G(2d,p)
 ****
 1  2  14  15  16  17  18  19  20  22  24  25  26 0
 3-21G
 ****
 31  33  36  37  38  39  40  41  42  43  44  45  46 0
 3-21G
 ****


