%nproc=1
%NoSave
%Mem=1900MB
#P OB98/GEN NMR

erre ene a

0 1
  C      336.515    -199.654     204.425
  O      335.221    -199.032     204.426
  P      334.114    -199.528     205.482
  C      332.625    -197.412     205.104
  O      332.717    -198.828     205.131
  C      331.627    -196.962     204.032
  O      332.084    -197.357     202.716
  C      330.240    -197.578     204.167
  O      329.486    -196.964     205.199
  C      329.666    -197.344     202.781
  O      329.140    -196.012     202.656
  C      330.916    -197.520     201.889
  N      330.931    -198.801     201.186
  C      330.632    -198.768     199.828
  O      330.310    -197.742     199.230
  N      330.688    -199.973     199.179
  C      330.930    -201.187     199.757
  O      330.947    -202.236     199.122
  C      331.160    -201.170     201.206
  C      331.140    -199.998     201.848
  O      334.551    -198.746     206.811
  O      334.068    -201.003     205.725
  H      328.880    -195.901     201.719
  H      334.276    -199.256     207.598
  H      330.505    -199.970     198.187
  H      331.330    -202.110     201.708
  H      331.307    -199.963     202.922
  H      330.963    -196.717     201.143
  H      328.850    -198.031     202.539
  H      330.326    -198.657     204.344
  H      331.566    -195.862     204.058
  H      333.606    -196.991     204.873
  H      332.312    -197.054     206.092
  P      328.903    -197.931     206.344
  C      328.800    -196.161     208.269
  O      328.098    -196.968     207.342
  O      330.242    -198.320     207.126
  O      328.142    -199.097     205.795
  H      330.889    -197.591     207.135
  H      329.759    -195.830     207.869
  H      328.956    -196.733     209.191
  H      328.186    -195.282     208.497
  H      337.124    -199.208     203.667
  H      336.408    -200.700     204.227
  H      336.977    -199.517     205.380

 3  4  5  6  7  8  9  10  11  12  13  23  28  29  30  31  32 0
 6-311+G(2d,p)
 ****
 33  34 0
 6-311+G(2d,p)
 ****
 1  2  14  15  16  17  18  19  20  21  22  24  25  26 0
 3-21G
 ****
 27  35  36  37  38  39  40  41  42  43  44  45 0
 3-21G
 ****


