%nproc=1
%NoSave
%Mem=1900MB
#P OB98/GEN NMR

erre ene a

0 1
  C      102.253     -24.426      48.184
  O      101.572     -25.579      48.640
  H      103.025     -24.165      48.912
  H      101.556     -23.588      48.094
  H      102.728     -24.626      47.221
  P      100.405     -26.142      47.690
  C       98.755     -25.386      49.537
  O       99.096     -25.341      48.158
  C       97.560     -24.478      49.822
  O       97.830     -23.135      49.382
  C       96.273     -24.895      49.120
  O       95.627     -25.941      49.827
  C       95.482     -23.598      49.185
  O       94.896     -23.449      50.493
  C       96.572     -22.530      48.976
  N       94.438     -19.687      45.270
  C       93.964     -20.111      46.462
  N       94.570     -20.898      47.375
  C       95.797     -21.256      46.959
  C       96.414     -20.899      45.769
  C       95.684     -20.068      44.904
  N       96.177     -19.629      43.692
  N       97.673     -21.456      45.686
  C       97.834     -22.092      46.830
  N       96.712     -22.031      47.620
  O      100.286     -27.625      47.622
  O      100.769     -25.424      46.304
  H       95.600     -23.610      51.150
  H      101.077     -24.514      46.461
  H       92.964     -19.772      46.716
  H       98.742     -22.595      47.140
  H       96.408     -21.653      49.614
  H       94.661     -23.574      48.464
  H       96.454     -25.152      48.071
  H       97.419     -24.441      50.910
  H       99.609     -25.082      50.152
  H       95.528     -19.181      43.062
  H       97.052     -20.013      43.368
  H       98.506     -26.424      49.780
  P       94.730     -27.021      49.051
  C       92.750     -25.435      49.468
  O       93.435     -26.237      48.513
  O       94.430     -28.260      49.820
  O       95.547     -27.333      47.713
  H       95.479     -28.281      47.486
  H       91.910     -24.964      49.001
  H       93.414     -24.687      49.847
  H       92.410     -26.052      50.274

 6  7  8  9  10  11  12  13  14  15  25  28  32  33  34  35 0
 6-311+G(2d,p)
 ****
 36  39  40 0
 6-311+G(2d,p)
 ****
 1  2  3  4  5  16  17  18  19  20  21  22  23  24 0
 3-21G
 ****
 26  27  29  30  31  37  38  41  42  43  44  45  46  47 0
 3-21G
 ****
 48 0
 3-21G
 ****


