%nproc=1
%NoSave
%Mem=1900MB
#P OB98/GEN NMR

erre ene a

0 1
  C      675.209     437.178     141.151
  O      674.242     437.802     141.982
  P      674.766     438.794     143.118
  C      674.696     436.923     144.920
  O      674.247     438.208     144.525
  C      673.569     436.135     145.600
  O      673.210     436.812     146.840
  C      672.289     435.995     144.762
  O      671.738     434.715     145.067
  C      671.423     437.112     145.323
  O      670.052     436.988     145.010
  C      671.790     437.025     146.798
  N      667.884     439.806     148.613
  C      667.927     438.615     147.971
  N      669.003     437.932     147.519
  C      670.134     438.607     147.809
  C      670.252     439.827     148.427
  C      669.056     440.447     148.850
  N      669.023     441.655     149.493
  N      671.585     440.207     148.528
  C      672.242     439.223     147.962
  N      671.419     438.215     147.527
  O      673.871     440.101     142.918
  O      676.237     439.102     143.066
  H      669.569     437.802     145.223
  H      674.394     440.910     143.054
  H      666.951     438.153     147.783
  H      673.314     439.198     147.837
  H      671.300     436.175     147.294
  H      671.763     438.067     144.897
  H      672.471     436.062     143.681
  H      673.959     435.142     145.878
  H      675.522     437.034     145.637
  H      668.118     442.111     149.564
  H      669.879     442.215     149.488
  H      675.078     436.377     144.054
  P      672.095     433.460     144.132
  C      669.753     433.521     143.085
  O      670.675     432.770     143.848
  O      672.736     432.452     145.198
  O      672.962     433.765     142.959
  H      672.161     432.333     145.978
  H      668.867     432.907     142.874
  H      670.202     433.822     142.122
  H      669.432     434.407     143.640
  H      674.716     436.546     140.442
  H      675.870     436.590     141.753
  H      675.770     437.927     140.632

 3  4  5  6  7  8  9  10  11  12  22  25  29  30  31  32 0
 6-311+G(2d,p)
 ****
 33  36  37 0
 6-311+G(2d,p)
 ****
 1  2  13  14  15  16  17  18  19  20  21  23  24  26 0
 3-21G
 ****
 27  28  34  35  38  39  40  41  42  43  44  45  46  47  48 0
 3-21G
 ****


