%nproc=1
%NoSave
%Mem=1900MB
#P OB98/GEN NMR

erre ene a

0 1
  C     -184.161    -387.304     325.648
  O     -183.417    -388.286     324.934
  P     -183.665    -388.440     323.360
  C     -181.454    -389.637     322.525
  O     -182.840    -389.685     322.795
  C     -181.095    -390.775     321.549
  O     -181.237    -392.058     322.197
  C     -181.968    -390.795     320.296
  O     -181.466    -389.942     319.286
  C     -181.935    -392.263     319.925
  O     -180.693    -392.585     319.266
  C     -182.001    -392.931     321.319
  N     -183.330    -393.167     321.913
  C     -184.256    -393.975     321.262
  O     -184.049    -394.534     320.185
  N     -185.463    -394.157     321.894
  C     -185.774    -393.759     323.161
  O     -186.843    -393.997     323.700
  C     -184.706    -393.039     323.873
  C     -183.568    -392.763     323.225
  O     -182.925    -387.174     322.726
  O     -185.110    -388.494     322.969
  H     -180.578    -391.943     318.544
  H     -183.567    -386.574     322.308
  H     -186.169    -394.680     321.401
  H     -184.894    -392.739     324.896
  H     -182.773    -392.231     323.746
  H     -181.490    -393.907     321.303
  H     -182.723    -392.511     319.217
  H     -182.992    -390.538     320.556
  H     -180.033    -390.657     321.268
  H     -180.881    -389.738     323.450
  H     -181.202    -388.668     322.091
  P     -182.368    -388.731     318.751
  C     -180.114    -387.977     317.771
  O     -181.513    -388.046     317.574
  O     -182.894    -387.795     319.793
  O     -183.544    -389.460     317.945
  H     -184.341    -389.566     318.517
  H     -179.646    -387.644     316.844
  H     -179.722    -388.964     318.033
  H     -179.884    -387.260     318.561
  H     -183.882    -387.327     326.681
  H     -185.207    -387.512     325.556
  H     -183.953    -386.335     325.244

 3  4  5  6  7  8  9  10  11  12  13  23  28  29  30  31  32 0
 6-311+G(2d,p)
 ****
 33  34 0
 6-311+G(2d,p)
 ****
 1  2  14  15  16  17  18  19  20  21  22  24  25  26  27 0
 3-21G
 ****
 35  36  37  38  39  40  41  42  43  44  45 0
 3-21G
 ****


