%nproc=1
%NoSave
%Mem=1900MB
#P OB98/GEN NMR

erre ene a

0 1
  C        6.494     386.243    -167.726
  O        6.545     386.386    -169.152
  P        5.932     385.208    -170.048
  C        8.179     383.985    -170.513
  O        6.891     383.932    -169.917
  C        8.986     382.734    -170.149
  O        8.251     381.523    -170.441
  C       10.301     382.614    -170.906
  O       11.329     383.383    -170.299
  C       10.598     381.132    -170.743
  O       11.168     380.889    -169.438
  C        9.202     380.509    -170.844
  N        9.500     376.605    -174.048
  C        9.926     376.715    -172.738
  N       10.509     375.623    -172.201
  N        9.790     377.800    -172.020
  C        9.173     378.807    -172.682
  C        8.709     378.819    -173.978
  C        8.878     377.617    -174.764
  O        8.535     377.468    -175.934
  N        8.149     380.028    -174.295
  C        8.252     380.738    -173.190
  N        8.883     380.048    -172.186
  O        6.218     385.714    -171.541
  O        4.479     384.956    -169.819
  H       11.124     379.924    -169.293
  H        5.550     385.346    -172.148
  H        9.633     375.748    -174.556
  H        7.888     381.751    -173.068
  H        9.075     379.651    -170.171
  H       11.323     380.769    -171.475
  H       10.599     374.740    -172.679
  H       10.172     382.860    -171.968
  H       10.796     375.674    -171.230
  H        9.191     382.764    -169.071
  H        8.714     384.879    -170.182
  H        8.067     384.089    -171.596
  P       11.819     384.711    -171.055
  C       14.026     383.502    -171.697
  O       12.900     384.230    -172.137
  O       12.690     385.455    -169.938
  O       10.718     385.577    -171.568
  H       12.631     386.420    -170.060
  H       14.558     383.123    -172.573
  H       13.721     382.653    -171.078
  H       14.696     384.155    -171.131
  H        6.938     387.101    -167.265
  H        7.032     385.365    -167.436
  H        5.475     386.157    -167.412

 3  4  5  6  7  8  9  10  11  12  23  26  30  31 0
 6-311+G(2d,p)
 ****
 33  35  36  37  38 0
 6-311+G(2d,p)
 ****
 1  2  13  14  15  16  17  18  19  20  21  22  24  25 0
 3-21G
 ****
 27  28  29  32  34  39  40  41  42  43  44  45  46  47  48  49 0
 3-21G
 ****


