%nproc=1
%NoSave
%Mem=1900MB
#P OB98/GEN NMR

erre ene a

0 1
  C     -417.426    -107.848    -194.959
  O     -416.233    -107.705    -194.215
  H     -418.029    -108.642    -194.511
  H     -417.195    -108.118    -195.994
  H     -418.000    -106.917    -194.939
  P     -415.212    -106.564    -194.700
  C     -415.550    -104.803    -192.817
  O     -415.805    -105.174    -194.169
  C     -414.612    -103.599    -192.779
  O     -415.108    -102.568    -193.664
  C     -414.503    -102.945    -191.411
  O     -413.647    -103.657    -190.536
  C     -413.974    -101.571    -191.787
  O     -412.552    -101.581    -191.961
  C     -414.674    -101.297    -193.124
  N     -416.051     -96.487    -192.119
  C     -414.843     -97.063    -192.286
  N     -414.559     -98.350    -192.566
  C     -415.691     -99.066    -192.703
  C     -416.991     -98.617    -192.564
  C     -417.161     -97.255    -192.261
  N     -418.390     -96.676    -192.066
  N     -417.886     -99.653    -192.735
  C     -417.135    -100.711    -192.981
  N     -415.804    -100.404    -192.975
  O     -415.463    -106.509    -196.278
  O     -413.781    -106.815    -194.372
  H     -412.312    -100.703    -192.314
  H     -414.759    -107.005    -196.738
  H     -413.987     -96.401    -192.171
  H     -417.507    -101.715    -193.164
  H     -413.995    -100.844    -193.861
  H     -414.210    -100.839    -191.010
  H     -415.498    -102.834    -190.965
  H     -413.627    -103.914    -193.147
  H     -415.083    -105.644    -192.291
  H     -416.504    -104.565    -192.330
  H     -418.432     -95.710    -191.782
  H     -419.214     -97.262    -192.052
  P     -413.715    -103.312    -188.976
  C     -413.997    -105.832    -188.367
  O     -414.501    -104.508    -188.255
  O     -414.742    -102.082    -188.899
  O     -412.405    -102.971    -188.355
  H     -414.466    -101.463    -188.198
  H     -414.636    -106.503    -187.832
  H     -413.010    -105.874    -187.956
  H     -413.966    -106.116    -189.398

 6  7  8  9  10  11  12  13  14  15  25  28  32  33  34  35 0
 6-311+G(2d,p)
 ****
 36  37  40 0
 6-311+G(2d,p)
 ****
 1  2  3  4  5  16  17  18  19  20  21  22  23  24 0
 3-21G
 ****
 26  27  29  30  31  38  39 41  42  43  44  45  46  47  48 0
 3-21G
 ****


