%nproc=1
%NoSave
%Mem=1900MB
#P OB98/GEN NMR

erre ene a

0 1
  C     -340.994    -275.349     609.015
  O     -340.371    -274.351     609.809
  P     -339.423    -273.291     609.077
  C     -337.783    -273.079     611.099
  O     -338.703    -272.437     610.225
  C     -336.679    -272.102     611.496
  O     -335.709    -271.972     610.434
  C     -337.171    -270.681     611.772
  O     -337.768    -270.584     613.060
  C     -335.896    -269.878     611.625
  O     -335.126    -269.894     612.844
  C     -335.158    -270.635     610.496
  N     -335.242    -269.954     609.215
  C     -334.037    -269.816     608.528
  O     -332.952    -270.210     608.975
  N     -334.110    -269.165     607.319
  C     -335.232    -268.604     606.775
  O     -335.222    -267.980     605.714
  C     -336.468    -268.762     607.563
  C     -336.415    -269.408     608.724
  O     -340.445    -272.250     608.413
  O     -338.502    -273.881     608.069
  H     -334.998    -270.830     613.091
  H     -340.095    -271.939     607.556
  H     -333.255    -269.067     606.795
  H     -337.377    -268.327     607.164
  H     -337.316    -269.529     609.329
  H     -334.088    -270.764     610.758
  H     -336.097    -268.830     611.397
  H     -337.891    -270.386     610.995
  H     -336.157    -272.502     612.384
  H     -337.351    -273.948     610.591
  H     -338.319    -273.435     611.982
  P     -339.308    -270.136     613.122
  C     -338.620    -268.455     614.998
  O     -339.490    -269.480     614.570
  O     -340.039    -271.562     613.208
  O     -339.724    -269.302     611.951
  H     -339.497    -272.214     613.701
  H     -338.308    -267.803     614.158
  H     -337.730    -268.907     615.450
  H     -339.124    -267.842     615.748
  H     -341.592    -275.979     609.639
  H     -340.244    -275.937     608.528
  H     -341.615    -274.883     608.279

 3  4  5  6  7  8  9  10  11  12  13  23  28  29  30  31  32 0
 6-311+G(2d,p)
 ****
 33  34 0
 6-311+G(2d,p)
 ****
 1  2  14  15  16  17  18  19  20  21  22  24  25  26 0
 3-21G
 ****
 27  35  36  37  38  39  40  41  42  43  44  45 0
 3-21G
 ****


