%nproc=1
%NoSave
%Mem=1900MB
#P OB98/GEN NMR

erre ene a

0 1
  C      -13.844      51.232     -82.336
  O      -13.596      50.166     -83.238
  P      -14.649      48.963     -83.406
  C      -14.791      47.234     -85.321
  O      -14.614      48.598     -84.967
  C      -15.443      47.135     -86.698
  O      -16.806      47.598     -86.620
  C      -14.778      47.983     -87.774
  O      -13.575      47.381     -88.228
  C      -15.897      48.073     -88.804
  O      -15.954      46.869     -89.586
  C      -17.147      48.171     -87.905
  N      -17.634      49.538     -87.760
  C      -18.990      49.749     -88.023
  O      -19.726      48.818     -88.349
  N      -19.500      51.016     -87.874
  C      -18.721      51.991     -87.519
  N      -19.294      53.209     -87.323
  C      -17.275      51.822     -87.287
  C      -16.805      50.584     -87.419
  O      -16.007      49.239     -82.860
  O      -13.928      47.703     -82.741
  H      -15.063      46.738     -89.965
  H      -14.099      47.616     -81.771
  H      -16.664      52.669     -87.006
  H      -15.758      50.374     -87.245
  H      -17.955      47.550     -88.310
  H      -15.789      48.916     -89.494
  H      -14.552      48.984     -87.387
  H      -15.456      46.079     -86.997
  H      -20.307      53.239     -87.321
  H      -15.445      46.762     -84.580
  H      -18.831      53.929     -86.782
  H      -13.821      46.728     -85.307
  P      -12.451      48.342     -88.845
  C       -9.858      48.348     -88.806
  O      -11.051      47.808     -88.267
  O      -12.696      49.728     -88.086
  O      -12.514      48.491     -90.329
  H      -13.182      50.350     -88.660
  H       -9.026      48.068     -88.155
  H       -9.913      49.439     -88.854
  H       -9.680      47.938     -89.802
  H      -13.030      51.926     -82.371
  H      -13.940      50.844     -81.343
  H      -14.749      51.730     -82.613

 3  4  5  6  7  8  9  10  11  12  13  23  27  28  29  30  32 0
 6-311+G(2d,p)
 ****
 34  35 0
 6-311+G(2d,p)
 ****
 1  2  14  15  16  17  18  19  20  21  22  24  25  26 0
 3-21G
 ****
 31  33  36  37  38  39  40  41  42  43  44  45  46 0
 3-21G
 ****


