%nproc=1
%NoSave
%Mem=1900MB
#P OB98/GEN NMR

erre ene a

0 1
  C     -557.992     144.573      22.636
  O     -557.458     145.454      23.606
  H     -558.674     145.130      21.992
  H     -558.544     143.768      23.129
  H     -557.186     144.153      22.024
  P     -556.412     144.822      24.646
  C     -554.648     146.591      23.891
  O     -555.351     145.984      24.961
  C     -554.273     148.036      24.241
  O     -555.471     148.859      24.167
  C     -553.707     148.205      25.662
  O     -552.815     149.329      25.656
  C     -554.962     148.548      26.452
  O     -554.630     149.061      27.725
  C     -555.630     149.494      25.460
  N     -558.975     151.710      28.627
  C     -557.629     151.724      28.591
  N     -556.804     151.123      27.713
  C     -557.512     150.462      26.778
  C     -558.886     150.366      26.678
  C     -559.639     151.027      27.665
  N     -561.013     151.011      27.711
  N     -559.246     149.596      25.583
  C     -558.102     149.238      25.035
  N     -557.031     149.733      25.723
  O     -555.584     143.785      23.752
  O     -557.011     144.176      25.846
  H     -554.447     148.335      28.360
  H     -555.964     142.891      23.843
  H     -557.139     152.304      29.380
  H     -557.997     148.622      24.146
  H     -555.127     150.467      25.418
  H     -555.574     147.659      26.621
  H     -553.177     147.311      26.028
  H     -553.575     148.417      23.485
  H     -555.299     146.582      23.000
  H     -553.739     146.017      23.673
  H     -561.479     151.495      28.458
  H     -561.522     150.492      27.009
  P     -551.366     149.178      26.341
  C     -550.110     149.820      24.135
  O     -550.316     150.073      25.518
  O     -550.941     147.693      25.912
  O     -551.332     149.332      27.825
  H     -550.337     147.320      26.577
  H     -549.383     150.505      23.752
  H     -551.033     149.947      23.608
  H     -549.759     148.818      24.004

 6  7  8  9  10  11  12  13  14  15  25  28  32  33  34  35 0
 6-311+G(2d,p)
 ****
 36  37  40 0
 6-311+G(2d,p)
 ****
 1  2  3  4  5  16  17  18  19  20  21  22  23  24 0
 3-21G
 ****
 26  27  29  30  31  38  39 41  42  43  44  45  46  47  48 0
 3-21G
 ****


