%nproc=1
%NoSave
%Mem=1900MB
#P OB98/GEN NMR

erre ene a

0 1
  C     -181.686     -93.960       7.890
  O     -182.018     -95.216       8.451
  H     -182.350     -93.201       8.313
  H     -181.815     -93.974       6.805
  H     -180.653     -93.697       8.140
  P     -181.300     -96.531       7.883
  C     -179.031     -96.646       9.100
  O     -180.379     -97.097       9.072
  C     -178.353     -97.045      10.414
  O     -179.144     -96.528      11.517
  C     -178.212     -98.561      10.596
  O     -176.962     -98.823      11.245
  C     -179.368     -98.893      11.517
  O     -179.140    -100.093      12.232
  C     -179.472     -97.633      12.381
  N     -180.811     -97.497      12.961
  C     -181.055     -98.208      14.142
  O     -180.162     -98.891      14.653
  N     -182.314     -98.183      14.684
  C     -183.267     -97.553      14.071
  N     -184.501     -97.602      14.642
  C     -183.064     -96.813      12.808
  C     -181.823     -96.825      12.315
  O     -180.603     -96.385       6.570
  O     -182.488     -97.604       7.802
  H     -179.862    -100.224      12.884
  H     -182.910     -97.568       6.922
  H     -183.893     -96.308      12.333
  H     -181.582     -96.316      11.386
  H     -178.737     -97.657      13.196
  H     -180.284     -99.024      10.924
  H     -178.266     -99.113       9.654
  H     -177.373     -96.549      10.467
  H     -184.597     -98.143      15.493
  H     -179.038     -95.555       9.008
  H     -185.328     -97.185      14.236
  H     -178.480     -97.067       8.253
  P     -175.885     -99.810      10.577
  C     -174.501     -98.653       8.758
  O     -174.590     -98.956      10.149
  O     -176.430    -100.695       9.505
  O     -175.351    -100.685      11.812
  H     -175.090    -101.570      11.492
  H     -173.612     -98.086       8.573
  H     -175.356     -98.082       8.462
  H     -174.468     -99.563       8.196

 6  7  8  9  10  11  12  13  14  15  16  26  30  31  32  33  35 0
 6-311+G(2d,p)
 ****
 37  38 0
 6-311+G(2d,p)
 ****
 1  2  3  4  5  17  18  19  20  21  22  23  24  25 0
 3-21G
 ****
 27  28  29  34  36  39  40  41  42  43  44  45  46 0
 3-21G
 ****


