%nproc=1
%NoSave
%Mem=1900MB
#P OB98/GEN NMR

erre ene a

0 1
  C      174.409     267.980    -355.472
  O      175.150     268.246    -354.294
  P      176.351     267.282    -353.838
  C      178.342     268.551    -354.890
  O      177.624     268.243    -353.700
  C      178.905     269.968    -354.807
  O      177.819     270.913    -354.695
  C      179.804     270.222    -353.603
  O      181.090     269.654    -353.800
  C      179.762     271.743    -353.529
  O      180.658     272.316    -354.497
  C      178.302     272.042    -353.926
  N      177.443     272.301    -352.776
  C      176.646     273.448    -352.839
  O      176.676     274.189    -353.825
  N      175.804     273.722    -351.794
  C      175.772     272.932    -350.761
  N      174.866     273.218    -349.785
  C      176.630     271.746    -350.630
  C      177.430     271.489    -351.663
  O      176.565     266.089    -354.708
  O      176.023     266.920    -352.317
  H      180.467     271.879    -355.350
  H      175.449     266.126    -352.218
  H      176.576     271.125    -349.747
  H      178.079     270.622    -351.656
  H      178.260     272.906    -354.601
  H      180.037     272.140    -352.547
  H      179.357     269.798    -352.699
  H      179.446     270.178    -355.740
  H      174.182     273.936    -350.000
  H      177.656     268.486    -355.739
  H      174.578     272.520    -349.111
  H      179.143     267.817    -355.027
  P      181.958     269.324    -352.493
  C      180.916     266.954    -352.460
  O      182.102     267.723    -352.452
  O      180.964     269.671    -351.290
  O      183.244     270.083    -352.400
  H      181.185     270.543    -350.908
  H      181.179     265.915    -352.666
  H      180.231     267.303    -353.237
  H      180.432     267.000    -351.481
  H      173.659     268.733    -355.599
  H      173.941     267.021    -355.390
  H      175.067     267.985    -356.316

 3  4  5  6  7  8  9  10  11  12  13  23  27  28  29  30  32 0
 6-311+G(2d,p)
 ****
 34  35 0
 6-311+G(2d,p)
 ****
 1  2  14  15  16  17  18  19  20  21  22  24  25  26 0
 3-21G
 ****
 31  33  36  37  38  39  40  41  42  43  44  45  46 0
 3-21G
 ****


