%nproc=1
%NoSave
%Mem=1900MB
#P OB98/GEN NMR

erre ene a

0 1
  C     -643.577    -318.349    -833.268
  O     -642.623    -318.118    -834.284
  H     -644.233    -317.481    -833.192
  H     -643.061    -318.480    -832.310
  H     -644.180    -319.233    -833.488
  P     -641.816    -319.388    -834.837
  C     -639.926    -317.683    -835.353
  O     -640.667    -318.815    -835.803
  C     -638.978    -317.206    -836.451
  O     -638.100    -318.303    -836.827
  C     -639.685    -316.717    -837.726
  O     -638.951    -315.607    -838.262
  C     -639.521    -317.891    -838.673
  O     -639.616    -317.503    -840.040
  C     -638.136    -318.394    -838.262
  N     -636.766    -321.032    -842.308
  C     -636.728    -319.673    -842.065
  N     -636.317    -318.881    -843.081
  N     -637.070    -319.133    -840.925
  C     -637.444    -320.039    -839.994
  C     -637.535    -321.408    -840.109
  C     -637.171    -321.991    -841.383
  O     -637.199    -323.186    -841.659
  N     -638.012    -321.960    -838.952
  C     -638.240    -320.934    -838.146
  N     -637.909    -319.750    -838.735
  O     -642.860    -320.049    -835.853
  O     -641.357    -320.358    -833.801
  H     -640.527    -317.186    -840.205
  H     -643.361    -320.753    -835.400
  H     -636.515    -321.402    -843.212
  H     -638.650    -320.999    -837.152
  H     -637.329    -317.773    -838.667
  H     -640.288    -318.642    -838.471
  H     -636.015    -319.228    -843.980
  H     -640.737    -316.439    -837.576
  H     -636.246    -317.885    -842.907
  H     -638.342    -316.404    -836.043
  H     -639.341    -317.964    -834.472
  H     -640.622    -316.884    -835.070
  P     -639.580    -314.139    -838.088
  C     -639.514    -313.184    -840.510
  O     -638.951    -313.174    -839.204
  O     -638.897    -313.616    -836.730
  O     -641.069    -314.118    -837.998
  H     -639.532    -313.053    -836.242
  H     -638.986    -312.491    -841.131
  H     -640.545    -312.902    -840.456
  H     -639.435    -314.167    -840.925

 6  7  8  9  10  11  12  13  14  15  26  29  33  34 0
 6-311+G(2d,p)
 ****
 36  38  39  40  41 0
 6-311+G(2d,p)
 ****
 1  2  3  4  5  16  17  18  19  20  21  22  23  24  25 0
 3-21G
 ****
 27  28  30  31  32  35  37  42  43  44  45  46  47 0
 3-21G
 ****
 48  49 0
 3-21G
 ****


