%nproc=1
%NoSave
%Mem=1900MB
#P OB98/GEN NMR

erre ene a

0 1
  C      232.266     248.864     312.456
  O      231.564     248.810     313.689
  P      229.958     248.829     313.628
  C      229.892     249.357     316.169
  O      229.492     249.746     314.860
  C      229.271     250.276     317.215
  O      229.834     251.595     317.099
  C      227.768     250.458     317.083
  O      227.049     249.379     317.652
  C      227.558     251.741     317.879
  O      227.494     251.430     319.285
  C      228.833     252.538     317.560
  N      227.971     257.450     316.689
  C      228.120     256.779     317.886
  N      228.058     257.524     319.011
  N      228.313     255.488     317.977
  C      228.393     254.877     316.771
  C      228.261     255.435     315.517
  C      227.997     256.857     315.437
  O      227.791     257.495     314.407
  N      228.420     254.495     314.532
  C      228.686     253.380     315.181
  N      228.650     253.552     316.546
  O      229.559     247.351     314.100
  O      229.376     249.161     312.296
  H      228.132     250.708     319.447
  H      228.684     247.110     313.740
  H      227.846     258.448     316.680
  H      228.908     252.433     314.711
  H      229.238     253.015     318.462
  H      226.628     252.255     317.623
  H      228.047     258.533     319.003
  H      227.479     250.626     316.036
  H      228.204     257.055     319.894
  H      229.525     249.883     318.209
  H      230.982     249.415     316.247
  H      229.584     248.319     316.336
  P      225.878     248.737     316.754
  C      224.975     247.596     318.909
  O      224.693     248.405     317.783
  O      226.465     247.301     316.361
  O      225.507     249.550     315.558
  H      226.063     246.994     315.523
  H      225.978     247.798     319.303
  H      224.900     246.543     318.628
  H      224.242     247.811     319.689
  H      233.319     248.844     312.644
  H      232.013     249.767     311.941
  H      231.995     248.022     311.854

 3  4  5  6  7  8  9  10  11  12  23  26  30  31  33  0
 6-311+G(2d,p)
 ****
 35  36  37  38 0
 6-311+G(2d,p)
 ****
 1  2  13  14  15  16  17  18  19  20  21  22  24  25  27  28  29 0
 3-21G
 ****
 32  34  39  40  41  42  43  44  45  46  47  48  49 0
 3-21G
 ****


