%nproc=1
%NoSave
%Mem=1900MB
#P OB98/GEN NMR

erre ene a

0 1
  C       -1.727    -340.871     429.185
  O       -1.861    -342.149     429.784
  H       -2.322    -340.156     429.759
  H       -2.103    -340.895     428.160
  H       -0.682    -340.548     429.196
  P       -0.964    -343.359     429.230
  C       -0.304    -344.718     431.325
  O       -1.198    -344.605     430.214
  C       -0.760    -345.870     432.223
  O       -2.045    -345.569     432.819
  C       -0.943    -347.197     431.492
  O        0.308    -347.804     431.217
  C       -1.813    -347.958     432.485
  O       -1.015    -348.519     433.544
  C       -2.735    -346.835     433.015
  N       -4.044    -346.817     432.379
  C       -5.111    -347.333     433.135
  O       -4.966    -347.809     434.265
  N       -6.334    -347.309     432.531
  C       -6.582    -346.933     431.237
  O       -7.687    -347.019     430.709
  C       -5.435    -346.434     430.483
  C       -4.228    -346.392     431.078
  O        0.461    -343.035     428.952
  O       -1.734    -343.811     427.898
  H       -1.631    -349.026     434.109
  H       -1.241    -343.500     427.114
  H       -7.107    -347.689     433.053
  H       -5.594    -346.111     429.459
  H       -3.373    -346.032     430.534
  H       -2.875    -346.940     434.101
  H       -2.354    -348.771     432.013
  H       -1.507    -347.032     430.568
  H       -0.023    -345.979     433.040
  H       -0.332    -343.777     431.897
  H        0.705    -344.891     430.954
  P        0.426    -348.891     430.039
  C        2.911    -348.673     429.397
  O        1.920    -349.468     430.054
  O       -0.071    -348.436     428.703
  O       -0.440    -350.127     430.588
  H       -1.178    -350.297     429.968
  H        3.863    -349.156     429.472
  H        2.962    -347.711     429.862
  H        2.650    -348.558     428.366

 6  7  8  9  10  11  12  13  14  15  16  26  31  32  33  34  35 0
 6-311+G(2d,p)
 ****
 36  37 0
 6-311+G(2d,p)
 ****
 1  2  3  4  5  17  18  19  20  21  22  23  24  25 0
 3-21G
 ****
 27  28  29  30  38  39  40  41  42  43  44  45 0
 3-21G
 ****


