%nproc=1
%NoSave
%Mem=1900MB
#P OB98/GEN NMR

erre ene a

0 1
  C     -303.797    -433.359    -195.046
  O     -304.353    -432.096    -195.432
  P     -304.062    -430.735    -194.630
  C     -302.804    -429.366    -196.419
  O     -302.715    -430.071    -195.186
  C     -302.843    -427.849    -196.201
  O     -301.690    -427.408    -195.462
  C     -302.841    -427.023    -197.482
  O     -304.113    -427.039    -198.103
  C     -302.413    -425.656    -196.948
  O     -303.528    -424.942    -196.392
  C     -301.409    -426.050    -195.845
  N     -300.023    -425.892    -196.273
  C     -299.038    -426.217    -195.327
  O     -299.353    -426.552    -194.190
  N     -297.715    -426.120    -195.699
  C     -297.404    -425.670    -196.878
  N     -296.081    -425.605    -197.192
  C     -298.408    -425.236    -197.867
  C     -299.681    -425.374    -197.502
  O     -304.106    -430.884    -193.143
  O     -305.207    -429.716    -195.117
  H     -303.913    -425.516    -195.698
  H     -305.415    -429.100    -194.392
  H     -298.108    -424.841    -198.828
  H     -300.487    -425.090    -198.173
  H     -301.567    -425.439    -194.945
  H     -301.979    -425.019    -197.726
  H     -302.076    -427.399    -198.171
  H     -303.734    -427.619    -195.597
  H     -295.418    -425.920    -196.495
  H     -303.719    -429.684    -196.931
  H     -295.733    -425.273    -198.081
  H     -301.943    -429.638    -197.045
  P     -304.222    -426.977    -199.703
  C     -304.042    -429.439    -200.408
  O     -303.369    -428.195    -200.296
  O     -303.933    -425.642    -200.312
  O     -305.733    -427.423    -199.996
  H     -306.045    -426.967    -200.804
  H     -303.535    -430.044    -201.161
  H     -305.085    -429.294    -200.708
  H     -304.004    -429.954    -199.446
  H     -304.129    -434.117    -195.725
  H     -304.118    -433.602    -194.055
  H     -302.729    -433.301    -195.070

 3  4  5  6  7  8  9  10  11  12  13  23  27  28  29  30  32 0
 6-311+G(2d,p)
 ****
 34  35 0
 6-311+G(2d,p)
 ****
 1  2  14  15  16  17  18  19  20  21  22  24  25  26 0
 3-21G
 ****
 31  33  36  37  38  39  40  41  42  43  44  45  46 0
 3-21G
 ****


