%nproc=1
%NoSave
%Mem=1900MB
#P OB98/GEN NMR

erre ene a

0 1
  C     -179.019     128.876     -12.678
  O     -177.887     129.027     -11.844
  P     -177.446     127.867     -10.832
  C     -177.349     127.484      -8.300
  O     -177.688     128.392      -9.337
  C     -177.106     128.213      -6.979
  O     -175.908     129.030      -7.094
  C     -178.258     129.127      -6.541
  O     -178.366     129.019      -5.119
  C     -177.770     130.506      -6.939
  O     -178.417     131.537      -6.208
  C     -176.268     130.366      -6.679
  N     -175.485     131.367      -7.383
  C     -175.379     132.627      -6.782
  O     -176.040     132.884      -5.776
  N     -174.540     133.557      -7.347
  C     -174.014     133.315      -8.510
  N     -173.136     134.233      -9.002
  C     -174.306     132.095      -9.288
  C     -175.006     131.152      -8.654
  O     -176.087     127.301     -11.076
  O     -178.573     126.741     -11.008
  H     -178.144     125.884     -11.203
  H     -178.161     131.470      -5.267
  H     -173.943     131.997     -10.299
  H     -175.246     130.210      -9.133
  H     -176.052     130.439      -5.606
  H     -177.962     130.674      -8.001
  H     -179.213     128.848      -7.000
  H     -176.906     127.460      -6.207
  H     -172.930     135.040      -8.423
  H     -176.435     126.960      -8.592
  H     -172.450     133.997      -9.718
  H     -178.141     126.735      -8.188
  P     -179.787     129.342      -4.435
  C     -180.738     131.280      -2.990
  O     -179.743     130.852      -3.895
  O     -179.686     128.498      -3.071
  O     -181.003     128.928      -5.197
  H     -180.586     128.285      -2.761
  H     -180.595     132.344      -2.791
  H     -180.654     130.730      -2.048
  H     -181.733     131.133      -3.417
  H     -179.143     129.756     -13.274
  H     -179.890     128.729     -12.074
  H     -178.881     128.029     -13.317

 3  4  5  6  7  8  9  10  11  12  13  24  27  28  29  30  32 0
 6-311+G(2d,p)
 ****
 34  35 0
 6-311+G(2d,p)
 ****
 1  2  14  15  16  17  18  19  20  21  22  23  25  26 0
 3-21G
 ****
 31  33  36  37  38  39  40  41  42  43  44  45  46 0
 3-21G
 ****


