%nproc=1
%NoSave
%Mem=1900MB
#P OB98/GEN NMR

erre ene a

0 1
  C       24.120     -38.704      25.461
  O       24.609     -39.913      24.917
  P       23.934     -41.326      25.266
  C       25.950     -41.729      26.811
  O       24.536     -41.756      26.692
  C       26.396     -42.089      28.229
  O       25.871     -41.109      29.168
  C       25.947     -43.476      28.709
  O       26.989     -43.964      29.560
  C       24.705     -43.156      29.518
  O       24.352     -44.199      30.416
  C       25.119     -41.830      30.169
  N       23.968     -41.073      30.647
  C       23.241     -41.631      31.701
  O       23.531     -42.749      32.132
  N       22.168     -40.940      32.206
  C       21.793     -39.837      31.636
  N       20.727     -39.194      32.182
  C       22.455     -39.278      30.443
  C       23.534     -39.931      30.014
  O       24.043     -42.361      24.200
  O       22.424     -40.941      25.631
  H       25.160     -44.475      30.902
  H       21.904     -40.763      24.807
  H       22.073     -38.387      29.969
  H       24.086     -39.597      29.148
  H       25.792     -42.010      31.018
  H       23.856     -42.997      28.842
  H       25.750     -44.178      27.895
  H       27.490     -42.017      28.267
  H       20.309     -39.605      33.009
  H       26.289     -40.714      26.583
  H       20.406     -38.289      31.869
  H       26.401     -42.405      26.078
  P       27.489     -45.485      29.477
  C       26.414     -45.945      31.756
  O       26.508     -46.349      30.402
  O       28.945     -45.688      29.743
  O       27.096     -45.951      27.994
  H       27.583     -46.768      27.771
  H       25.532     -46.409      32.206
  H       26.324     -44.857      31.834
  H       27.306     -46.274      32.298
  H       24.710     -37.887      25.102
  H       24.179     -38.744      26.529
  H       23.101     -38.566      25.165

 3  4  5  6  7  8  9  10  11  12  13  23  27  28  29  30  32 0
 6-311+G(2d,p)
 ****
 34  35 0
 6-311+G(2d,p)
 ****
 1  2  14  15  16  17  18  19  20  21  22  24  25  26 0
 3-21G
 ****
 31  33  36  37  38  39  40  41  42  43  44  45  46 0
 3-21G
 ****


