%nproc=1
%NoSave
%Mem=1900MB
#P OB98/GEN NMR

erre ene a

0 1
  C     -328.675    1180.047    -251.200
  O     -329.915    1180.512    -251.714
  P     -331.036    1179.411    -252.042
  C     -332.382    1179.756    -249.820
  O     -332.369    1179.846    -251.266
  C     -332.904    1181.075    -249.234
  O     -331.913    1182.118    -249.411
  C     -334.162    1181.604    -249.893
  O     -335.302    1180.874    -249.479
  C     -334.133    1183.054    -249.430
  O     -334.600    1183.152    -248.058
  C     -332.632    1183.386    -249.487
  N     -331.707    1187.915    -251.694
  C     -332.102    1187.584    -250.453
  N     -332.349    1186.361    -249.938
  C     -332.146    1185.413    -250.884
  C     -331.765    1185.608    -252.185
  C     -331.541    1186.924    -252.613
  N     -331.146    1187.269    -253.876
  N     -331.703    1184.380    -252.850
  C     -331.995    1183.487    -251.941
  N     -332.266    1184.049    -250.737
  O     -330.535    1178.125    -251.233
  O     -331.224    1179.125    -253.505
  H     -334.721    1184.096    -247.853
  H     -330.761    1177.305    -251.721
  H     -332.232    1188.418    -249.742
  H     -332.025    1182.410    -252.122
  H     -332.315    1184.000    -248.662
  H     -334.755    1183.719    -250.046
  H     -334.097    1181.569    -250.986
  H     -333.064    1180.910    -248.168
  H     -331.344    1179.582    -249.479
  H     -331.146    1188.238    -254.144
  H     -331.149    1186.529    -254.601
  H     -333.000    1178.907    -249.520
  P     -336.684    1181.101    -250.279
  C     -336.491    1179.475    -252.262
  O     -336.995    1179.657    -250.944
  O     -336.187    1181.985    -251.520
  O     -337.800    1181.695    -249.463
  H     -335.415    1181.604    -251.950
  H     -336.728    1178.490    -252.563
  H     -335.407    1179.632    -252.254
  H     -336.967    1180.185    -252.947
  H     -328.026    1180.880    -251.028
  H     -328.223    1179.382    -251.906
  H     -328.843    1179.529    -250.279

 3  4  5  6  7  8  9  10  11  12  22  25  29  30  31  32 0
 6-311+G(2d,p)
 ****
 33  36  37 0
 6-311+G(2d,p)
 ****
 1  2  13  14  15  16  17  18  19  20  21  23  24  26 0
 3-21G
 ****
 27  28  34  35  38  39  40  41  42  43  44  45  46  47  48 0
 3-21G
 ****


