%nproc=1
%NoSave
%Mem=1900MB
#P OB98/GEN NMR

erre ene a

0 1
  C      -41.538     -24.595     128.326
  O      -41.793     -23.514     127.457
  H      -41.068     -24.213     129.235
  H      -40.853     -25.303     127.851
  H      -42.469     -25.102     128.596
  P      -42.625     -23.821     126.120
  C      -44.978     -23.157     126.994
  O      -43.895     -22.837     126.133
  C      -46.175     -22.251     126.702
  O      -47.329     -22.753     127.425
  C      -45.959     -20.794     127.115
  O      -46.567     -19.946     126.137
  C      -46.714     -20.676     128.426
  O      -47.128     -19.338     128.705
  C      -47.861     -21.672     128.214
  N      -48.402     -22.144     129.485
  C      -49.784     -22.033     129.660
  O      -50.484     -21.547     128.769
  N      -50.335     -22.417     130.855
  C      -49.563     -22.798     131.825
  N      -50.166     -23.137     132.996
  C      -48.093     -22.865     131.709
  C      -47.586     -22.536     130.522
  O      -43.271     -25.255     126.406
  O      -41.835     -23.794     124.854
  H      -46.331     -18.810     128.929
  H      -43.370     -25.770     125.582
  H      -47.491     -23.164     132.554
  H      -46.518     -22.548     130.345
  H      -48.672     -21.209     127.637
  H      -46.071     -21.007     129.250
  H      -44.904     -20.528     127.221
  H      -46.412     -22.324     125.633
  H      -51.176     -23.060     133.042
  H      -44.664     -23.006     128.032
  H      -49.664     -23.403     133.829
  H      -45.253     -24.208     126.857
  P      -45.650     -19.496     124.902
  C      -46.152     -21.502     123.330
  O      -46.282     -20.106     123.561
  O      -44.309     -20.343     125.110
  O      -45.374     -18.029     124.863
  H      -43.585     -19.757     125.398
  H      -46.621     -21.755     122.402
  H      -46.623     -22.041     124.126
  H      -45.115     -21.762     123.288

 6  7  8  9  10  11  12  13  14  15  16  26  30  31  32  33  35 0
 6-311+G(2d,p)
 ****
 37  38 0
 6-311+G(2d,p)
 ****
 1  2  3  4  5  17  18  19  20  21  22  23  24  25 0
 3-21G
 ****
 27  28  29  34  36  39  40  41  42  43  44  45  46 0
 3-21G
 ****


