%nproc=1
%NoSave
%Mem=1900MB
#P OB98/GEN NMR

erre ene a

0 1
  C     -607.660     413.394    -571.942
  O     -606.437     412.800    -571.572
  H     -607.630     414.454    -571.669
  H     -608.484     412.917    -571.399
  H     -607.826     413.312    -573.019
  P     -606.191     411.277    -572.022
  C     -607.436     410.133    -570.051
  O     -606.195     410.393    -570.680
  C     -607.242     409.223    -568.836
  O     -606.687     407.957    -569.281
  C     -606.301     409.803    -567.779
  O     -606.802     409.465    -566.479
  C     -604.993     409.068    -568.020
  O     -604.170     409.013    -566.856
  C     -605.488     407.707    -568.527
  N     -604.471     407.028    -569.321
  C     -603.482     406.348    -568.617
  O     -603.468     406.347    -567.380
  N     -602.468     405.731    -569.312
  C     -602.409     405.865    -570.607
  N     -601.371     405.254    -571.242
  C     -603.401     406.628    -571.388
  C     -604.403     407.174    -570.687
  O     -604.649     411.262    -572.467
  O     -607.097     410.774    -573.092
  H     -603.873     409.924    -566.641
  H     -604.497     410.616    -573.182
  H     -603.296     406.730    -572.463
  H     -605.166     407.765    -571.172
  H     -605.762     407.063    -567.674
  H     -604.424     409.585    -568.804
  H     -606.187     410.892    -567.847
  H     -608.229     409.005    -568.405
  H     -600.702     404.749    -570.673
  H     -608.096     409.634    -570.770
  H     -601.209     405.328    -572.236
  H     -607.898     411.083    -569.752
  P     -607.950     410.410    -565.885
  C     -606.327     411.982    -564.599
  O     -607.401     411.058    -564.517
  O     -609.071     409.376    -565.392
  O     -608.499     411.382    -566.872
  H     -609.839     409.406    -565.986
  H     -606.075     412.324    -563.617
  H     -606.619     412.816    -565.203
  H     -605.477     411.503    -565.039

 6  7  8  9  10  11  12  13  14  15  16  26  30  31  32  33  35 0
 6-311+G(2d,p)
 ****
 37  38 0
 6-311+G(2d,p)
 ****
 1  2  3  4  5  17  18  19  20  21  22  23  24  25 0
 3-21G
 ****
 27  28  29  34  36  39  40  41  42  43  44  45  46 0
 3-21G
 ****


