%nproc=1
%NoSave
%Mem=1900MB
#P OB98/GEN NMR

erre ene a

0 1
  C      201.975    -430.709     313.265
  O      200.681    -431.224     313.588
  P      200.267    -432.684     313.074
  C      198.831    -431.980     311.047
  O      200.024    -432.624     311.479
  C      198.575    -432.160     309.547
  O      197.210    -431.834     309.208
  C      199.485    -431.310     308.644
  O      199.767    -432.092     307.467
  C      198.592    -430.136     308.298
  O      199.042    -429.424     307.149
  C      197.241    -430.853     308.152
  N      196.108    -429.925     308.230
  C      196.000    -428.964     307.214
  O      196.902    -428.856     306.378
  N      194.905    -428.148     307.212
  C      194.082    -428.179     308.210
  N      192.988    -427.365     308.157
  C      194.253    -429.065     309.379
  C      195.266    -429.920     309.302
  O      199.174    -433.350     313.844
  O      201.634    -433.504     313.186
  H      198.337    -428.801     306.876
  H      201.428    -434.427     313.432
  H      193.584    -428.993     310.223
  H      195.483    -430.607     310.111
  H      197.185    -431.393     307.198
  H      198.566    -429.430     309.142
  H      200.429    -431.027     309.116
  H      198.727    -433.224     309.317
  H      192.891    -426.742     307.356
  H      198.903    -430.906     311.269
  H      192.266    -427.365     308.872
  H      197.991    -432.354     311.648
  P      201.149    -432.897     307.389
  C      202.558    -431.460     305.738
  O      202.325    -431.842     307.074
  O      201.010    -433.657     305.981
  O      201.407    -433.890     308.472
  H      201.572    -434.451     305.992
  H      203.166    -430.547     305.727
  H      201.625    -431.263     305.199
  H      203.103    -432.258     305.214
  H      202.084    -429.730     313.684
  H      202.083    -430.656     312.202
  H      202.727    -431.355     313.668

 3  4  5  6  7  8  9  10  11  12  13  23  27  28  29  30  32 0
 6-311+G(2d,p)
 ****
 34  35 0
 6-311+G(2d,p)
 ****
 1  2  14  15  16  17  18  19  20  21  22  24  25  26 0
 3-21G
 ****
 31  33  36  37  38  39  40  41  42  43  44  45  46 0
 3-21G
 ****


