%nproc=1
%NoSave
%Mem=1900MB
#P OB98/GEN NMR

erre ene a

0 1
  C     -536.331      81.221    -170.062
  O     -535.560      82.376    -169.712
  P     -533.963      82.415    -169.889
  C     -533.617      83.196    -167.465
  O     -533.302      83.433    -168.834
  C     -532.699      83.955    -166.491
  O     -531.358      83.384    -166.495
  C     -532.540      85.453    -166.779
  O     -532.338      86.079    -165.511
  C     -531.260      85.484    -167.601
  O     -530.648      86.769    -167.646
  C     -530.438      84.422    -166.875
  N     -525.856      85.381    -168.957
  C     -526.574      86.040    -168.023
  N     -527.768      85.710    -167.495
  C     -528.197      84.534    -167.988
  C     -527.568      83.740    -168.933
  C     -526.344      84.211    -169.435
  N     -525.628      83.564    -170.418
  N     -528.327      82.617    -169.214
  C     -529.400      82.741    -168.462
  N     -529.369      83.882    -167.696
  O     -533.506      82.617    -171.299
  O     -533.475      80.979    -169.365
  H     -531.252      87.378    -168.108
  H     -532.827      80.610    -169.994
  H     -526.138      86.977    -167.668
  H     -530.240      82.056    -168.440
  H     -529.991      84.823    -165.960
  H     -531.487      85.191    -168.636
  H     -533.395      85.886    -167.302
  H     -533.099      83.803    -165.480
  H     -533.549      82.120    -167.272
  H     -524.808      84.028    -170.783
  H     -526.035      82.768    -170.876
  H     -534.659      83.498    -167.289
  P     -533.500      86.923    -164.794
  C     -532.626      89.314    -165.116
  O     -532.804      88.242    -164.200
  O     -534.324      86.154    -163.817
  O     -534.389      87.488    -166.000
  H     -535.263      87.750    -165.663
  H     -531.781      89.094    -165.773
  H     -532.418      90.226    -164.551
  H     -533.529      89.464    -165.716
  H     -537.366      81.410    -169.865
  H     -536.004      80.384    -169.480
  H     -536.199      81.006    -171.102

 3  4  5  6  7  8  9  10  11  12  22  25  29  30  31  32 0
 6-311+G(2d,p)
 ****
 33  36  37 0
 6-311+G(2d,p)
 ****
 1  2  13  14  15  16  17  18  19  20  21  23  24  26 0
 3-21G
 ****
 27  28  34  35  38  39  40  41  42  43  44  45  46  47  48 0
 3-21G
 ****


