%nproc=1
%NoSave
%Mem=1900MB
#P OB98/GEN NMR

erre ene a

0 1
  C       16.996    -122.582    -636.090
  O       15.866    -122.167    -636.866
  P       14.735    -121.337    -636.074
  C       13.301    -123.376    -635.316
  O       14.138    -122.290    -634.924
  C       12.828    -124.192    -634.112
  O       12.135    -125.383    -634.585
  C       13.940    -124.666    -633.174
  O       13.459    -124.617    -631.821
  C       14.121    -126.127    -633.537
  O       14.707    -126.879    -632.482
  C       12.671    -126.505    -633.867
  N       13.164    -131.542    -633.864
  C       13.244    -130.646    -632.813
  N       13.521    -131.160    -631.594
  N       13.074    -129.354    -632.941
  C       12.777    -128.982    -634.215
  C       12.662    -129.775    -635.338
  C       12.897    -131.192    -635.184
  O       12.892    -132.028    -636.083
  N       12.350    -129.032    -636.447
  C       12.286    -127.784    -636.003
  N       12.543    -127.708    -634.654
  O       13.543    -121.234    -637.147
  O       15.174    -119.989    -635.624
  H       14.731    -127.815    -632.773
  H       13.310    -120.297    -637.297
  H       13.328    -132.514    -633.708
  H       12.084    -126.913    -636.605
  H       12.086    -126.636    -632.948
  H       14.766    -126.201    -634.424
  H       13.596    -132.154    -631.405
  H       14.870    -124.098    -633.255
  H       13.535    -130.534    -630.810
  H       12.085    -123.591    -633.560
  H       13.851    -124.027    -636.000
  H       12.444    -122.972    -635.863
  P       13.884    -123.333    -630.955
  C       15.883    -124.436    -629.694
  O       15.460    -123.505    -630.670
  O       13.216    -123.615    -629.526
  O       13.464    -122.025    -631.529
  H       13.039    -122.775    -629.064
  H       15.078    -125.100    -629.365
  H       16.272    -123.894    -628.826
  H       16.689    -125.052    -630.120
  H       17.678    -123.121    -636.714
  H       16.668    -123.214    -635.291
  H       17.486    -121.721    -635.686

 3  4  5  6  7  8  9  10  11  12  23  26  30  31  33  0
 6-311+G(2d,p)
 ****
 35  36  37  38 0
 6-311+G(2d,p)
 ****
 1  2  13  14  15  16  17  18  19  20  21  22  24  25  27  28  29 0
 3-21G
 ****
 32  34  39  40  41  42  43  44  45  46  47  48  49 0
 3-21G
 ****


