%nproc=1
%NoSave
%Mem=1900MB
#P OB98/GEN NMR

erre ene a

0 1
  C     -225.543    -111.935     920.175
  O     -224.279    -111.826     919.544
  H     -226.284    -111.419     919.568
  H     -225.497    -111.455     921.160
  H     -225.837    -112.983     920.282
  P     -223.101    -112.769     920.094
  C     -222.238    -111.562     922.229
  O     -223.067    -112.594     921.693
  C     -222.025    -111.779     923.725
  O     -221.218    -112.981     923.917
  C     -221.304    -110.617     924.425
  O     -221.875    -110.428     925.720
  C     -219.871    -111.120     924.562
  O     -219.175    -110.490     925.644
  C     -220.096    -112.610     924.742
  N     -216.876    -116.162     926.334
  C     -218.042    -115.679     926.915
  N     -218.398    -116.221     928.100
  N     -218.793    -114.758     926.376
  C     -218.324    -114.329     925.180
  C     -217.202    -114.715     924.498
  C     -216.364    -115.725     925.124
  O     -215.305    -116.168     924.671
  N     -217.056    -114.013     923.323
  C     -218.105    -113.216     923.281
  N     -218.918    -113.374     924.387
  O     -221.779    -112.016     919.603
  O     -223.137    -114.184     919.615
  H     -218.343    -110.992     925.784
  H     -221.300    -112.580     918.960
  H     -216.336    -116.874     926.808
  H     -218.319    -112.513     922.497
  H     -220.337    -112.873     925.786
  H     -219.320    -110.913     923.634
  H     -217.907    -116.982     928.553
  H     -221.357    -109.681     923.866
  H     -219.272    -115.918     928.524
  H     -222.993    -111.973     924.199
  H     -222.727    -110.595     922.064
  H     -221.273    -111.572     921.711
  P     -222.595    -109.022     925.997
  C     -220.493    -107.501     926.121
  O     -221.667    -107.848     925.398
  O     -222.446    -108.837     927.587
  O     -224.038    -108.982     925.575
  H     -223.322    -108.972     928.017
  H     -219.979    -106.713     925.610
  H     -219.853    -108.356     926.194
  H     -220.763    -107.173     927.103

 6  7  8  9  10  11  12  13  14  15  26  29  33  34 0
 6-311+G(2d,p)
 ****
 36  38  39  40  41 0
 6-311+G(2d,p)
 ****
 1  2  3  4  5  16  17  18  19  20  21  22  23  24  25 0
 3-21G
 ****
 27  28  30  31  32  35  37  42  43  44  45  46  47 0
 3-21G
 ****
 48  49 0
 3-21G
 ****


