%nproc=1
%NoSave
%Mem=1900MB
#P OB98/GEN NMR

erre ene a

0 1
  C     -445.177    -303.421     573.615
  O     -445.523    -304.679     573.062
  H     -444.091    -303.280     573.512
  H     -445.443    -303.379     574.673
  H     -445.688    -302.623     573.071
  P     -447.064    -305.122     573.214
  C     -446.347    -306.473     575.337
  O     -446.983    -306.488     574.054
  C     -446.644    -307.770     576.072
  O     -448.045    -307.845     576.433
  C     -446.377    -309.044     575.259
  O     -444.985    -309.369     575.189
  C     -447.160    -310.050     576.094
  O     -446.430    -310.348     577.306
  C     -448.442    -309.253     576.384
  N     -449.487    -309.471     575.385
  C     -450.668    -310.075     575.814
  O     -450.806    -310.411     576.994
  N     -451.660    -310.323     574.905
  C     -451.502    -309.964     573.656
  N     -452.530    -310.241     572.803
  C     -450.284    -309.301     573.154
  C     -449.333    -309.081     574.069
  O     -447.447    -305.640     571.740
  O     -447.987    -304.092     573.762
  H     -445.682    -310.915     577.051
  H     -448.330    -306.071     571.755
  H     -450.203    -309.030     572.115
  H     -448.404    -308.588     573.770
  H     -448.850    -309.510     577.380
  H     -447.309    -310.995     575.580
  H     -446.803    -308.977     574.265
  H     -446.060    -307.755     577.018
  H     -453.332    -310.740     573.160
  H     -446.750    -305.617     575.900
  H     -452.443    -310.141     571.795
  H     -445.265    -306.358     575.223
  P     -444.329    -309.454     573.730
  C     -445.486    -311.757     573.300
  O     -444.269    -311.016     573.343
  O     -442.800    -309.077     573.997
  O     -444.958    -308.572     572.705
  H     -442.426    -308.586     573.234
  H     -445.277    -312.771     573.030
  H     -446.143    -311.323     572.575
  H     -445.952    -311.734     574.263

 6  7  8  9  10  11  12  13  14  15  16  26  30  31  32  33  35 0
 6-311+G(2d,p)
 ****
 37  38 0
 6-311+G(2d,p)
 ****
 1  2  3  4  5  17  18  19  20  21  22  23  24  25 0
 3-21G
 ****
 27  28  29  34  36  39  40  41  42  43  44  45  46 0
 3-21G
 ****


