%nproc=1
%NoSave
%Mem=1900MB
#P OB98/GEN NMR

erre ene a

0 1
  C      563.439     306.929      56.772
  O      564.652     307.427      57.310
  P      566.024     306.893      56.677
  C      567.271     308.867      57.815
  O      567.209     307.461      57.587
  C      568.627     309.273      58.408
  O      568.663     308.897      59.807
  C      569.829     308.633      57.728
  O      570.885     309.604      57.683
  C      570.221     307.507      58.667
  O      571.594     307.149      58.521
  C      569.855     308.122      60.025
  N      569.649     307.106      61.055
  C      570.788     306.584      61.684
  O      571.912     306.938      61.300
  N      570.635     305.651      62.671
  C      569.460     305.185      62.948
  N      569.354     304.258      63.935
  C      568.235     305.609      62.221
  C      568.400     306.572      61.313
  O      566.155     307.752      55.318
  O      566.056     305.418      56.404
  H      571.757     306.321      59.035
  H      566.598     307.237      54.617
  H      567.280     305.152      62.459
  H      567.548     306.967      60.748
  H      570.639     308.796      60.376
  H      569.609     306.610      58.452
  H      569.614     308.292      56.702
  H      568.699     310.370      58.370
  H      570.207     303.975      64.408
  H      566.488     309.141      58.532
  H      568.475     303.840      64.213
  H      567.086     309.390      56.877
  P      571.430     310.087      56.252
  C      572.122     312.260      57.431
  O      572.524     311.201      56.576
  O      570.182     310.978      55.750
  O      571.771     309.043      55.238
  H      570.361     311.297      54.838
  H      573.001     312.871      57.668
  H      571.689     311.867      58.350
  H      571.367     312.900      56.922
  H      562.612     307.370      57.288
  H      563.407     305.866      56.889
  H      563.382     307.175      55.732

 3  4  5  6  7  8  9  10  11  12  13  21  23  27  28  29  30  32 0
 6-311+G(2d,p)
 ****
 34  35 0
 6-311+G(2d,p)
 ****
 1  2  14  15  16  17  18  19  20  22  24  25  26 0
 3-21G
 ****
 31  33  36  37  38  39  40  41  42  43  44  45  46 0
 3-21G
 ****


