%nproc=1
%NoSave
%Mem=1900MB
#P OB98/GEN NMR

erre ene a

0 1
  C      145.111    -286.068     159.504
  O      145.507    -286.715     160.699
  H      145.981    -285.989     158.843
  H      144.747    -285.062     159.727
  H      144.333    -286.644     158.997
  P      144.348    -287.087     161.738
  C      143.797    -289.512     160.897
  O      143.388    -288.156     161.018
  C      142.627    -290.440     161.229
  O      142.245    -290.323     162.614
  C      141.350    -290.114     160.471
  O      141.427    -290.447     159.103
  C      140.347    -290.947     161.256
  O      140.407    -292.327     160.874
  C      140.861    -290.757     162.705
  N      140.049    -289.816     163.465
  C      138.729    -290.213     163.716
  O      138.321    -291.301     163.309
  N      137.901    -289.352     164.392
  C      138.355    -288.210     164.807
  N      137.481    -287.400     165.461
  C      139.744    -287.766     164.587
  C      140.528    -288.606     163.912
  O      143.452    -285.762     161.753
  O      144.818    -287.532     163.084
  H      139.822    -292.810     161.489
  H      143.166    -285.474     160.870
  H      140.082    -286.810     164.959
  H      141.560    -288.356     163.709
  H      140.866    -291.715     163.242
  H      139.320    -290.617     161.090
  H      141.088    -289.058     160.606
  H      142.952    -291.473     161.047
  H      136.530    -287.731     165.575
  H      144.650    -289.723     161.546
  H      137.711    -286.478     165.800
  H      144.121    -289.671     159.863
  P      140.432    -289.772     158.043
  C      142.154    -287.867     157.897
  O      140.780    -288.205     158.036
  O      138.984    -290.086     158.240
  O      141.017    -290.255     156.634
  H      141.934    -289.982     156.456
  H      142.262    -286.803     157.906
  H      142.525    -288.256     156.972
  H      142.709    -288.289     158.709

 6  7  8  9  10  11  12  13  14  15  16  26  30  31  32  33  35 0
 6-311+G(2d,p)
 ****
 37  38 0
 6-311+G(2d,p)
 ****
 1  2  3  4  5  17  18  19  20  21  22  23  24  25 0
 3-21G
 ****
 27  28  29  34  36  39  40  41  42  43  44  45  46 0
 3-21G
 ****


