%nproc=1
%NoSave
%Mem=1900MB
#P OB98/GEN NMR

erre ene a

0 1
  C     -596.172     470.456    -705.109
  O     -596.541     469.393    -704.246
  P     -595.553     468.910    -703.056
  C     -594.093     466.833    -703.576
  O     -594.320     468.219    -703.823
  C     -594.802     465.988    -704.621
  O     -594.659     466.621    -705.922
  C     -594.242     464.578    -704.783
  O     -594.668     463.743    -703.731
  C     -594.765     464.223    -706.172
  O     -596.152     463.816    -706.105
  C     -594.647     465.572    -706.915
  N     -593.452     465.641    -707.764
  C     -593.647     465.409    -709.133
  O     -594.767     465.143    -709.587
  N     -592.574     465.502    -709.976
  C     -591.408     465.776    -709.488
  N     -590.369     465.913    -710.370
  C     -591.150     465.974    -708.046
  C     -592.215     465.913    -707.252
  O     -596.202     468.055    -702.017
  O     -594.915     470.264    -702.500
  H     -596.486     463.790    -707.030
  H     -595.443     470.672    -701.774
  H     -590.152     466.207    -707.687
  H     -592.112     466.075    -706.183
  H     -595.552     465.720    -707.548
  H     -594.208     463.402    -706.662
  H     -593.145     464.597    -704.799
  H     -595.877     465.962    -704.379
  H     -590.631     465.950    -711.356
  H     -594.498     466.586    -702.590
  H     -589.521     466.411    -710.111
  H     -593.003     466.648    -703.565
  P     -593.966     462.302    -703.578
  C     -595.282     460.270    -704.518
  O     -594.489     461.409    -704.808
  O     -594.676     461.677    -702.286
  O     -592.474     462.388    -703.433
  H     -594.103     461.751    -701.511
  H     -595.748     459.920    -705.437
  H     -596.057     460.510    -703.790
  H     -594.619     459.463    -704.138
  H     -596.952     470.623    -705.823
  H     -595.268     470.202    -705.621
  H     -596.018     471.345    -704.534

 3  4  5  6  7  8  9  10  11  12  13  23  27  28  29  30  32 0
 6-311+G(2d,p)
 ****
 34  35 0
 6-311+G(2d,p)
 ****
 1  2  14  15  16  17  18  19  20  21  22  24  25  26 0
 3-21G
 ****
 31  33  36  37  38  39  40  41  42  43  44  45  46 0
 3-21G
 ****


