%nproc=1
%NoSave
%Mem=1900MB
#P OB98/GEN NMR

erre ene a

0 1
  C       43.518     610.434     503.882
  O       44.299     609.266     503.710
  P       43.989     608.009     504.664
  C       45.431     607.632     506.818
  O       44.440     608.413     506.138
  C       46.813     607.966     506.272
  O       46.948     609.401     506.076
  C       47.952     607.580     507.209
  O       48.235     606.198     507.125
  C       49.092     608.464     506.707
  O       49.736     607.865     505.568
  C       48.333     609.750     506.281
  N       48.488     610.825     507.256
  C       49.773     611.360     507.378
  O       50.727     610.946     506.727
  N       49.919     612.362     508.293
  C       48.951     612.838     509.124
  O       49.146     613.700     509.977
  C       47.613     612.201     508.983
  C       47.452     611.249     508.074
  O       45.074     606.914     504.218
  O       42.603     607.482     504.560
  H       49.049     607.773     504.876
  H       44.686     606.022     504.272
  H       50.833     612.772     508.371
  H       46.828     612.559     509.627
  H       46.492     610.764     507.957
  H       48.708     610.096     505.313
  H       49.857     608.615     507.474
  H       47.703     607.868     508.239
  H       46.929     607.487     505.284
  H       45.209     606.569     506.645
  H       45.367     607.830     507.884
  P       49.389     605.621     508.082
  C       51.667     604.997     506.955
  O       50.762     606.008     507.340
  O       49.216     604.050     507.859
  O       49.254     606.063     509.503
  H       48.914     603.826     506.966
  H       51.145     604.083     506.638
  H       52.329     604.756     507.793
  H       52.274     605.364     506.125
  H       43.835     611.181     503.184
  H       43.642     610.802     504.879
  H       42.487     610.202     503.713

 3  4  5  6  7  8  9  10  11  12  13  23  28  29  30  31  32 0
 6-311+G(2d,p)
 ****
 33  34 0
 6-311+G(2d,p)
 ****
 1  2  14  15  16  17  18  19  20  21  22  24  25  26 0
 3-21G
 ****
 27  35  36  37  38  39  40  41  42  43  44  45 0
 3-21G
 ****


