%nproc=1
%NoSave
%Mem=1900MB
#P OB98/GEN NMR

erre ene a

0 1
  C      164.482    -124.329    -367.853
  O      164.589    -123.633    -366.630
  H      165.289    -125.062    -367.914
  H      164.583    -123.625    -368.681
  H      163.523    -124.853    -367.925
  P      163.308    -122.802    -366.142
  C      161.479    -124.471    -365.361
  O      162.599    -123.677    -364.997
  C      160.543    -124.657    -364.165
  O      159.270    -125.184    -364.650
  C      161.077    -125.627    -363.097
  O      160.688    -125.146    -361.803
  C      160.302    -126.900    -363.379
  O      160.219    -127.749    -362.242
  C      158.960    -126.320    -363.821
  N      155.856    -130.203    -363.112
  C      156.354    -129.275    -362.216
  N      156.023    -129.436    -360.918
  N      157.116    -128.271    -362.568
  C      157.353    -128.212    -363.900
  C      156.925    -129.072    -364.885
  C      156.096    -130.187    -364.483
  O      155.641    -131.052    -365.227
  N      157.431    -128.705    -366.106
  C      158.181    -127.643    -365.854
  N      158.165    -127.310    -364.528
  O      162.310    -122.934    -367.389
  O      163.565    -121.375    -365.789
  H      159.713    -128.549    -362.496
  H      162.405    -122.159    -367.972
  H      155.288    -130.964    -362.791
  H      158.765    -127.100    -366.583
  H      158.353    -125.972    -362.973
  H      160.778    -127.455    -364.195
  H      155.417    -130.167    -360.578
  H      162.160    -125.768    -363.127
  H      156.350    -128.743    -360.258
  H      160.334    -123.672    -363.728
  H      161.829    -125.452    -365.698
  H      160.948    -123.986    -366.189
  P      161.725    -124.215    -361.000
  C      160.613    -121.914    -361.469
  O      160.958    -122.898    -360.507
  O      162.688    -123.674    -362.157
  O      162.495    -124.942    -359.948
  H      163.595    -123.574    -361.815
  H      160.110    -121.103    -360.985
  H      159.968    -122.346    -362.205
  H      161.501    -121.551    -361.942

 6  7  8  9  10  11  12  13  14  15  26  29  33  34 0
 6-311+G(2d,p)
 ****
 36  38  39  40  41 0
 6-311+G(2d,p)
 ****
 1  2  3  4  5  16  17  18  19  20  21  22  23  24  25 0
 3-21G
 ****
 27  28  30  31  32  35  37  42  43  44  45  46  47 0
 3-21G
 ****
 48  49 0
 3-21G
 ****


