%nproc=1
%NoSave
%Mem=1900MB
#P OB98/GEN NMR

erre ene a

0 1
  C      194.870     -28.624     139.846
  O      195.283     -27.563     140.712
  P      195.862     -27.972     142.157
  C      194.778     -28.364     144.509
  O      194.585     -28.057     143.135
  C      193.608     -29.202     145.047
  O      192.377     -28.417     144.994
  C      193.360     -30.513     144.284
  O      192.963     -31.490     145.260
  C      192.191     -30.170     143.379
  O      191.482     -31.329     142.957
  C      191.400     -29.220     144.287
  N      190.453     -28.384     143.549
  C      189.359     -29.032     142.977
  O      189.212     -30.252     143.004
  N      188.464     -28.219     142.330
  C      188.592     -26.873     142.135
  O      187.755     -26.197     141.547
  C      189.827     -26.270     142.664
  C      190.682     -27.042     143.335
  O      196.609     -26.628     142.593
  O      196.724     -29.192     142.115
  H      196.146     -25.818     142.311
  H      191.126     -31.785     143.746
  H      187.641     -28.665     141.932
  H      189.989     -25.213     142.480
  H      191.610     -26.634     143.716
  H      190.840     -29.791     145.042
  H      192.553     -29.639     142.488
  H      194.248     -30.867     143.744
  H      193.803     -29.418     146.107
  H      194.847     -27.440     145.089
  H      195.732     -28.892     144.628
  P      193.986     -32.692     145.588
  C      194.040     -35.244     144.984
  O      193.542     -33.952     144.702
  O      193.481     -33.095     147.065
  O      195.435     -32.323     145.559
  H      192.515     -33.181     147.123
  H      193.441     -35.979     144.431
  H      193.965     -35.468     146.049
  H      195.079     -35.317     144.659
  H      194.509     -28.214     138.926
  H      194.090     -29.185     140.317
  H      195.702     -29.267     139.648

 3  4  5  6  7  8  9  10  11  12  13  24  28  29  30  31  32 0
 6-311+G(2d,p)
 ****
 33  34 0
 6-311+G(2d,p)
 ****
 1  2  14  15  16  17  18  19  20  21  22  23  25  26  27 0
 3-21G
 ****
 35  36  37  38  39  40  41  42  43  44  45 0
 3-21G
 ****


