%nproc=1
%NoSave
%Mem=1900MB
#P OB98/GEN NMR

erre ene a

0 1
  C      976.011    -591.950     177.791
  O      976.719    -592.753     176.865
  P      975.855    -593.718     175.909
  C      974.304    -595.778     176.456
  O      975.376    -594.931     176.845
  C      974.692    -597.243     176.625
  O      974.696    -597.589     178.046
  C      973.747    -598.241     175.971
  O      973.943    -598.313     174.577
  C      974.079    -599.519     176.732
  O      975.283    -600.113     176.199
  C      974.351    -598.974     178.156
  N      973.214    -599.173     179.064
  C      973.132    -600.406     179.697
  O      973.942    -601.305     179.524
  N      972.061    -600.576     180.533
  C      971.041    -599.673     180.729
  O      970.077    -599.897     181.457
  C      971.165    -598.399     180.022
  C      972.240    -598.212     179.226
  O      977.015    -594.341     174.997
  O      974.781    -593.005     175.162
  H      977.884    -594.354     175.467
  H      975.484    -600.882     176.766
  H      971.993    -601.454     181.026
  H      970.387    -597.674     180.142
  H      972.339    -597.280     178.676
  H      975.223    -599.486     178.581
  H      973.284    -600.267     176.676
  H      972.708    -597.952     176.189
  H      975.714    -597.375     176.254
  H      974.070    -595.581     175.406
  H      973.419    -595.538     177.058
  P      972.621    -598.501     173.667
  C      970.853    -600.425     173.428
  O      971.961    -599.882     174.136
  O      973.254    -598.828     172.240
  O      971.700    -597.318     173.680
  H      974.018    -599.436     172.304
  H      970.776    -601.491     173.652
  H      970.964    -600.292     172.355
  H      969.938    -599.917     173.759
  H      976.704    -591.363     178.357
  H      975.451    -592.578     178.453
  H      975.343    -591.302     177.263

 3  4  5  6  7  8  9  10  11  12  13  24  28  29  30  31  32 0
 6-311+G(2d,p)
 ****
 33  34 0
 6-311+G(2d,p)
 ****
 1  2  14  15  16  17  18  19  20  21  22  23  25  26  27 0
 3-21G
 ****
 35  36  37  38  39  40  41  42  43  44  45 0
 3-21G
 ****


