%nproc=1
%NoSave
%Mem=1900MB
#P OB98/GEN NMR

erre ene a

0 1
  C      -11.521    -456.018    -181.284
  O      -12.922    -456.118    -181.467
  H      -11.102    -457.014    -181.117
  H      -11.077    -455.595    -182.191
  H      -11.288    -455.367    -180.438
  P      -13.816    -456.427    -180.171
  C      -15.837    -457.810    -181.031
  O      -15.334    -456.527    -180.684
  C      -16.603    -457.745    -182.356
  O      -17.591    -456.680    -182.269
  C      -15.717    -457.467    -183.583
  O      -16.201    -458.239    -184.677
  C      -15.978    -455.992    -183.870
  O      -15.745    -455.644    -185.228
  C      -17.435    -455.858    -183.438
  N      -19.669    -451.710    -185.359
  C      -19.719    -453.011    -185.724
  N      -19.129    -454.063    -185.122
  C      -18.498    -453.681    -184.000
  C      -18.365    -452.393    -183.502
  C      -18.979    -451.375    -184.249
  N      -18.876    -450.035    -183.925
  N      -17.580    -452.399    -182.355
  C      -17.238    -453.659    -182.183
  N      -17.759    -454.469    -183.152
  O      -13.773    -455.027    -179.388
  O      -13.339    -457.560    -179.325
  H      -15.599    -454.680    -185.288
  H      -12.991    -455.005    -178.802
  H      -20.294    -453.231    -186.625
  H      -16.588    -454.028    -181.401
  H      -18.139    -456.209    -184.199
  H      -15.321    -455.378    -183.234
  H      -14.651    -457.672    -183.418
  H      -17.153    -458.683    -182.483
  H      -16.519    -458.154    -180.244
  H      -19.254    -449.368    -184.582
  H      -18.278    -449.761    -183.159
  H      -15.003    -458.518    -181.105
  P      -15.156    -459.205    -185.422
  C      -15.648    -458.754    -187.944
  O      -15.778    -459.640    -186.836
  O      -15.221    -460.555    -184.557
  O      -13.763    -458.657    -185.483
  H      -14.351    -460.994    -184.545
  H      -16.112    -459.189    -188.805
  H      -14.611    -458.585    -188.145
  H      -16.123    -457.823    -187.714

 6  7  8  9  10  11  12  13  14  15  25  28  32  33  34  35 0
 6-311+G(2d,p)
 ****
 36  39  40 0
 6-311+G(2d,p)
 ****
 1  2  3  4  5  16  17  18  19  20  21  22  23  24 0
 3-21G
 ****
 26  27  29  30  31  37  38  41  42  43  44  45  46  47 0
 3-21G
 ****
 48 0
 3-21G
 ****


