%nproc=1
%NoSave
%Mem=1900MB
#P OB98/GEN NMR

erre ene a

0 1
  C      522.616     618.862     240.698
  O      523.071     617.560     240.346
  P      524.497     617.068     240.903
  C      525.431     617.433     243.282
  O      524.369     616.888     242.501
  C      525.481     616.775     244.661
  O      524.295     617.072     245.436
  C      525.544     615.243     244.595
  O      526.834     614.823     244.212
  C      525.127     614.882     246.017
  O      526.243     614.971     246.919
  C      524.087     615.972     246.345
  N      522.719     615.483     246.299
  C      521.823     616.033     247.226
  O      522.220     616.867     248.049
  N      520.507     615.623     247.195
  C      520.124     614.732     246.324
  N      518.816     614.366     246.347
  C      521.043     614.110     245.343
  C      522.302     614.514     245.392
  O      525.678     617.845     240.438
  O      524.568     615.540     240.395
  H      526.673     615.824     246.751
  H      525.508     615.302     240.258
  H      520.669     613.372     244.629
  H      523.045     614.104     244.708
  H      524.256     616.366     247.354
  H      524.764     613.856     246.077
  H      524.801     614.878     243.888
  H      526.358     617.168     245.193
  H      518.217     614.799     247.038
  H      525.288     618.517     243.391
  H      518.418     613.728     245.678
  H      526.375     617.297     242.748
  P      527.018     614.257     242.727
  C      528.179     615.300     240.649
  O      527.321     615.505     241.774
  O      525.529     613.817     242.310
  O      527.976     613.105     242.594
  H      525.570     613.049     241.734
  H      528.028     616.133     239.942
  H      527.961     614.365     240.143
  H      529.214     615.327     240.980
  H      521.659     619.038     240.253
  H      523.314     619.592     240.344
  H      522.533     618.935     241.762

 3  4  5  6  7  8  9  10  11  12  13  23  27  28  29  30  32 0
 6-311+G(2d,p)
 ****
 34  35 0
 6-311+G(2d,p)
 ****
 1  2  14  15  16  17  18  19  20  21  22  24  25  26 0
 3-21G
 ****
 31  33  36  37  38  39  40  41  42  43  44  45  46 0
 3-21G
 ****


