%nproc=1
%NoSave
%Mem=1900MB
#P OB98/GEN NMR

erre ene a

0 1
  C      -78.306     105.192    -320.816
  O      -77.260     104.240    -320.823
  H      -77.935     106.124    -321.246
  H      -78.623     105.381    -319.787
  H      -79.155     104.841    -321.410
  P      -77.668     102.713    -320.545
  C      -75.798     101.809    -322.101
  O      -76.345     101.837    -320.792
  C      -75.009     100.521    -322.318
  O      -73.806     100.526    -321.523
  C      -75.768      99.250    -321.942
  O      -76.623      98.820    -322.992
  C      -74.614      98.282    -321.747
  O      -74.118      97.851    -323.033
  C      -73.567      99.169    -321.055
  N      -73.580      96.247    -316.909
  C      -73.573      95.891    -318.243
  N      -73.579      94.568    -318.510
  N      -73.567      96.751    -319.227
  C      -73.587      98.041    -318.811
  C      -73.602      98.519    -317.519
  C      -73.592      97.556    -316.443
  O      -73.587      97.821    -315.242
  N      -73.620      99.888    -317.490
  C      -73.641     100.237    -318.758
  N      -73.624      99.152    -319.602
  O      -78.597     102.362    -321.803
  O      -78.381     102.469    -319.258
  H      -73.842      98.651    -323.516
  H      -79.531     102.386    -321.520
  H      -73.595      95.545    -316.189
  H      -73.660     101.256    -319.121
  H      -72.543      98.899    -321.335
  H      -74.904      97.382    -321.201
  H      -73.605      93.852    -317.801
  H      -76.314      99.368    -320.997
  H      -73.570      94.283    -319.481
  H      -74.703     100.489    -323.371
  H      -75.132     102.668    -322.228
  H      -76.614     101.876    -322.829
  P      -77.940      97.988    -322.609
  C      -79.409      98.556    -324.668
  O      -78.648      97.569    -323.988
  O      -78.908      99.118    -322.019
  O      -77.733      96.884    -321.629
  H      -79.031      98.985    -321.058
  H      -79.818      98.137    -325.563
  H      -78.778      99.384    -324.917
  H      -80.204      98.892    -324.036

 6  7  8  9  10  11  12  13  14  15  26  29  33  34 0
 6-311+G(2d,p)
 ****
 36  38  39  40  41 0
 6-311+G(2d,p)
 ****
 1  2  3  4  5  16  17  18  19  20  21  22  23  24  25 0
 3-21G
 ****
 27  28  30  31  32  35  37  42  43  44  45  46  47 0
 3-21G
 ****
 48  49 0
 3-21G
 ****


