%nproc=1
%NoSave
%Mem=1900MB
#P OB98/GEN NMR

erre ene a

0 1
  C      105.173     -36.702      22.330
  O      105.720     -35.407      22.498
  P      104.714     -34.163      22.578
  C      105.361     -33.657      20.115
  O      105.111     -33.132      21.413
  C      105.589     -32.530      19.103
  O      106.046     -33.086      17.846
  C      104.327     -31.709      18.807
  O      104.695     -30.343      18.553
  C      103.829     -32.292      17.502
  O      103.011     -31.359      16.790
  C      105.151     -32.623      16.814
  N      105.177     -33.431      11.822
  C      105.630     -32.340      12.538
  N      106.077     -31.289      11.811
  N      105.659     -32.291      13.839
  C      105.176     -33.409      14.432
  C      104.710     -34.563      13.829
  C      104.675     -34.596      12.385
  O      104.259     -35.523      11.697
  N      104.342     -35.497      14.763
  C      104.538     -34.902      15.926
  N      105.009     -33.625      15.775
  O      105.179     -33.412      23.915
  O      103.272     -34.532      22.644
  H      102.594     -31.856      16.057
  H      104.536     -33.577      24.629
  H      105.164     -33.421      10.812
  H      104.335     -35.343      16.894
  H      105.605     -31.732      16.359
  H      103.234     -33.194      17.691
  H      106.020     -31.245      10.801
  H      103.567     -31.743      19.597
  H      106.372     -30.465      12.308
  H      106.393     -31.883      19.480
  H      104.499     -34.250      19.797
  H      106.237     -34.314      20.150
  P      104.117     -29.256      19.592
  C      103.394     -27.705      17.628
  O      104.149     -27.856      18.814
  O      105.295     -29.123      20.670
  O      102.815     -29.636      20.211
  H      104.933     -28.821      21.528
  H      102.632     -26.936      17.786
  H      102.901     -28.638      17.327
  H      104.059     -27.380      16.825
  H      105.964     -37.422      22.295
  H      104.617     -36.739      21.417
  H      104.525     -36.925      23.152

 3  4  5  6  7  8  9  10  11  12  23  26  30  31 0
 6-311+G(2d,p)
 ****
 33  35  36  37  38 0
 6-311+G(2d,p)
 ****
 1  2  13  14  15  16  17  18  19  20  21  22  24  25 0
 3-21G
 ****
 27  28  29  32  34  39  40  41  42  43  44  45  46  47  48  49 0
 3-21G
 ****


