%nproc=1
%NoSave
%Mem=1900MB
#P OB98/GEN NMR

erre ene a

0 1
  C      316.138    -319.915     161.938
  O      315.321    -320.281     163.036
  H      316.985    -319.335     162.310
  H      315.566    -319.304     161.235
  H      316.514    -320.807     161.434
  P      314.024    -321.161     162.698
  C      314.148    -321.765     165.231
  O      313.329    -321.486     164.108
  C      313.297    -322.260     166.405
  O      312.465    -321.155     166.876
  C      312.343    -323.411     166.043
  O      312.133    -324.199     167.225
  C      311.067    -322.657     165.700
  O      309.961    -323.531     165.649
  C      311.094    -321.606     166.804
  N      307.441    -318.649     168.824
  C      308.177    -319.650     169.349
  N      309.142    -320.382     168.752
  C      309.331    -319.976     167.485
  C      308.662    -318.966     166.816
  C      307.666    -318.283     167.539
  N      306.911    -317.274     167.005
  N      309.132    -318.845     165.516
  C      310.068    -319.766     165.410
  N      310.219    -320.480     166.569
  O      314.637    -322.566     162.242
  O      313.112    -320.589     161.664
  H      309.160    -323.060     165.334
  H      314.715    -322.595     161.271
  H      307.965    -319.897     170.385
  H      310.661    -319.965     164.522
  H      310.832    -322.030     167.780
  H      311.143    -322.190     164.715
  H      312.719    -324.048     165.240
  H      313.958    -322.532     167.237
  H      314.678    -320.851     165.513
  H      314.883    -322.536     164.963
  H      306.206    -316.846     167.585
  H      307.057    -317.001     166.042
  P      313.324    -325.134     167.765
  C      313.118    -324.330     170.246
  O      313.093    -325.411     169.326
  O      314.559    -324.113     167.791
  O      313.642    -326.329     166.925
  H      315.395    -324.604     167.668
  H      312.946    -324.700     171.235
  H      312.353    -323.626     169.991
  H      314.073    -323.849     170.205

 6  7  8  9  10  11  12  13  14  15  25  28  32  33  34  35 0
 6-311+G(2d,p)
 ****
 36  37  40 0
 6-311+G(2d,p)
 ****
 1  2  3  4  5  16  17  18  19  20  21  22  23  24 0
 3-21G
 ****
 26  27  29  30  31  38  39 41  42  43  44  45  46  47  48 0
 3-21G
 ****


