%nproc=1
%NoSave
%Mem=1900MB
#P OB98/GEN NMR

erre ene a

0 1
  C      459.769    -238.962     -79.775
  O      459.653    -237.599     -80.142
  H      459.212    -239.568     -80.497
  H      459.349    -239.121     -78.781
  H      460.819    -239.269     -79.795
  P      460.421    -236.542     -79.214
  C      458.156    -235.386     -78.636
  O      459.475    -235.248     -79.140
  C      457.130    -234.922     -79.680
  O      456.890    -236.018     -80.612
  C      455.764    -234.538     -79.087
  O      455.175    -233.544     -79.948
  C      454.991    -235.837     -79.210
  O      453.615    -235.631     -79.026
  C      455.466    -236.282     -80.591
  N      451.861    -239.780     -81.593
  C      451.795    -238.438     -81.421
  N      452.802    -237.573     -81.174
  C      453.980    -238.214     -81.120
  C      454.211    -239.571     -81.282
  C      453.083    -240.376     -81.525
  N      453.146    -241.739     -81.691
  N      455.559    -239.855     -81.155
  C      456.133    -238.695     -80.923
  N      455.219    -237.677     -80.887
  O      461.645    -236.072     -80.130
  O      460.873    -237.065     -77.891
  H      453.431    -235.261     -78.134
  H      462.443    -236.592     -79.910
  H      450.803    -238.008     -81.494
  H      457.194    -238.533     -80.769
  H      455.007    -235.686     -81.391
  H      455.308    -236.552     -78.442
  H      455.831    -234.144     -78.070
  H      457.560    -234.100     -80.260
  H      458.065    -234.774     -77.730
  H      457.970    -236.431     -78.382
  H      452.289    -242.245     -81.846
  H      454.045    -242.201     -81.624
  P      455.180    -232.001     -79.481
  C      453.358    -231.116     -81.142
  O      454.709    -231.091     -80.716
  O      456.746    -231.678     -79.404
  O      454.517    -231.721     -78.171
  H      456.911    -230.982     -78.743
  H      453.233    -230.451     -81.971
  H      452.724    -230.806     -80.337
  H      453.096    -232.110     -81.440

 6  7  8  9  10  11  12  13  14  15  25  28  32  33  34  35 0
 6-311+G(2d,p)
 ****
 36  37  40 0
 6-311+G(2d,p)
 ****
 1  2  3  4  5  16  17  18  19  20  21  22  23  24 0
 3-21G
 ****
 26  27  29  30  31  38  39 41  42  43  44  45  46  47  48 0
 3-21G
 ****


