%nproc=1
%NoSave
%Mem=1900MB
#P OB98/GEN NMR

erre ene a

0 1
  C      -87.213    -123.289    -185.140
  O      -86.734    -124.515    -185.652
  H      -87.927    -122.865    -185.853
  H      -86.386    -122.586    -185.012
  H      -87.720    -123.446    -184.184
  P      -85.699    -125.325    -184.731
  C      -87.459    -127.080    -183.965
  O      -86.575    -126.032    -183.586
  C      -87.724    -127.989    -182.768
  O      -88.802    -128.900    -183.085
  C      -86.544    -128.869    -182.378
  O      -85.578    -128.159    -181.623
  C      -87.243    -129.968    -181.587
  O      -87.473    -129.574    -180.228
  C      -88.581    -130.108    -182.324
  N      -88.969    -135.187    -182.468
  C      -89.047    -134.304    -181.449
  N      -88.952    -132.958    -181.498
  C      -88.764    -132.545    -182.762
  C      -88.656    -133.327    -183.899
  C      -88.770    -134.714    -183.721
  N      -88.654    -135.616    -184.752
  N      -88.420    -132.539    -185.008
  C      -88.395    -131.303    -184.551
  N      -88.604    -131.260    -183.201
  O      -84.927    -124.159    -183.951
  O      -84.763    -126.225    -185.464
  H      -87.915    -128.705    -180.260
  H      -84.101    -123.941    -184.423
  H      -89.204    -134.736    -180.464
  H      -88.223    -130.417    -185.150
  H      -89.426    -130.212    -181.632
  H      -86.648    -130.881    -181.564
  H      -86.088    -129.312    -183.271
  H      -88.043    -127.367    -181.922
  H      -87.001    -127.667    -184.769
  H      -88.393    -126.641    -184.331
  H      -88.723    -136.599    -184.546
  H      -88.400    -135.280    -185.671
  P      -84.142    -128.827    -181.395
  C      -83.149    -128.126    -183.693
  O      -83.538    -129.188    -182.837
  O      -84.498    -130.254    -180.764
  O      -83.221    -128.045    -180.520
  H      -84.378    -130.238    -179.797
  H      -82.769    -128.527    -184.609
  H      -82.388    -127.544    -183.216
  H      -83.996    -127.506    -183.899

 6  7  8  9  10  11  12  13  14  15  25  28  32  33  34  35 0
 6-311+G(2d,p)
 ****
 36  37  40 0
 6-311+G(2d,p)
 ****
 1  2  3  4  5  16  17  18  19  20  21  22  23  24 0
 3-21G
 ****
 26  27  29  30  31  38  39 41  42  43  44  45  46  47  48 0
 3-21G
 ****


