%nproc=1
%NoSave
%Mem=1900MB
#P OB98/GEN NMR

erre ene a

0 1
  C     -192.597      61.209    -175.147
  O     -192.929      60.207    -176.085
  H     -193.108      62.133    -175.433
  H     -191.520      61.390    -175.159
  H     -192.920      60.926    -174.143
  P     -192.427      58.707    -175.828
  C     -190.194      57.433    -176.040
  O     -190.831      58.702    -176.007
  C     -188.675      57.592    -176.172
  O     -188.376      58.101    -177.496
  C     -188.067      58.558    -175.150
  O     -186.790      58.063    -174.742
  C     -187.894      59.841    -175.938
  O     -186.852      60.662    -175.414
  C     -187.608      59.312    -177.342
  N     -186.457      63.819    -179.318
  C     -185.820      63.088    -178.335
  N     -184.724      63.647    -177.780
  N     -186.225      61.913    -177.927
  C     -187.322      61.467    -178.586
  C     -188.042      62.093    -179.576
  C     -187.596      63.403    -180.002
  O     -188.128      64.104    -180.857
  N     -189.107      61.326    -179.979
  C     -189.029      60.239    -179.236
  N     -187.972      60.280    -178.364
  O     -193.146      57.658    -176.616
  O     -192.617      58.490    -174.256
  H     -186.779      61.443    -176.005
  H     -193.389      57.925    -174.072
  H     -186.110      64.722    -179.584
  H     -189.711      59.399    -179.281
  H     -186.548      59.074    -177.492
  H     -188.828      60.417    -175.917
  H     -184.342      64.537    -178.062
  H     -188.705      58.690    -174.275
  H     -184.219      63.119    -177.077
  H     -188.215      56.600    -176.099
  H     -190.580      56.877    -176.899
  H     -190.436      56.883    -175.124
  P     -186.579      57.615    -173.216
  C     -186.206      58.714    -170.923
  O     -186.291      58.921    -172.327
  O     -185.627      56.486    -173.005
  O     -188.064      57.203    -172.760
  H     -188.005      56.459    -172.131
  H     -186.013      59.647    -170.436
  H     -185.411      58.030    -170.711
  H     -187.130      58.310    -170.566

 6  7  8  9  10  11  12  13  14  15  26  29  33  34 0
 6-311+G(2d,p)
 ****
 36  38  39  40  41 0
 6-311+G(2d,p)
 ****
 1  2  3  4  5  16  17  18  19  20  21  22  23  24  25 0
 3-21G
 ****
 27  28  30  31  32  35  37  42  43  44  45  46  47 0
 3-21G
 ****
 48  49 0
 3-21G
 ****


