%nproc=1
%NoSave
%Mem=1900MB
#P OB98/GEN NMR

erre ene a

0 1
  C     -617.538     132.070     251.638
  O     -616.934     131.500     250.493
  H     -616.924     131.832     252.514
  H     -618.542     131.660     251.789
  H     -617.592     133.161     251.528
  P     -617.703     131.707     249.100
  C     -619.717     130.138     249.475
  O     -619.252     131.484     249.465
  C     -621.083     130.043     250.158
  O     -621.992     130.959     249.494
  C     -621.701     128.642     250.094
  O     -622.375     128.371     251.324
  C     -622.716     128.749     248.965
  O     -623.776     127.808     249.096
  C     -623.153     130.215     249.088
  N     -627.121     132.518     246.848
  C     -626.843     132.257     248.146
  N     -625.749     131.647     248.657
  C     -624.875     131.342     247.680
  C     -625.022     131.542     246.316
  C     -626.216     132.157     245.904
  N     -626.517     132.408     244.585
  N     -623.917     131.058     245.633
  C     -623.121     130.585     246.572
  N     -623.656     130.719     247.823
  O     -617.192     130.900     247.958
  O     -617.616     133.293     248.917
  H     -624.441     127.990     248.401
  H     -617.807     133.762     249.749
  H     -627.598     132.565     248.864
  H     -622.152     130.126     246.395
  H     -623.942     130.359     249.834
  H     -622.214     128.573     248.009
  H     -620.958     127.866     249.900
  H     -620.985     130.393     251.198
  H     -618.999     129.498     249.999
  H     -627.399     132.867     244.378
  H     -625.855     132.165     243.866
  H     -619.784     129.799     248.435
  P     -621.727     127.306     252.333
  C     -623.348     125.385     251.708
  O     -621.989     125.831     251.759
  O     -622.046     127.499     253.780
  O     -620.146     127.496     252.071
  H     -619.673     127.409     252.913
  H     -623.383     124.393     251.308
  H     -623.916     126.042     251.082
  H     -623.761     125.387     252.695

 6  7  8  9  10  11  12  13  14  15  25  28  32  33  34  35 0
 6-311+G(2d,p)
 ****
 36  39  40 0
 6-311+G(2d,p)
 ****
 1  2  3  4  5  16  17  18  19  20  21  22  23  24 0
 3-21G
 ****
 26  27  29  30  31  37  38  41  42  43  44  45  46  47 0
 3-21G
 ****
 48 0
 3-21G
 ****


