%nproc=1
%NoSave
%Mem=1900MB
#P OB98/GEN NMR

erre ene a

0 1
  C      442.255    -221.067      34.084
  O      441.599    -221.091      35.348
  P      442.397    -221.686      36.606
  C      442.897    -224.089      37.443
  O      442.610    -223.255      36.332
  C      443.462    -225.438      36.995
  O      444.642    -225.204      36.171
  C      443.881    -226.370      38.139
  O      443.639    -227.716      37.702
  C      445.383    -226.137      38.237
  O      446.052    -227.218      38.885
  C      445.725    -225.967      36.754
  N      450.786    -226.165      37.513
  C      449.803    -227.043      37.797
  N      448.472    -226.923      37.564
  C      448.204    -225.742      36.973
  C      449.100    -224.731      36.656
  C      450.456    -224.976      36.947
  N      451.464    -224.089      36.646
  N      448.439    -223.659      36.089
  C      447.170    -224.013      36.060
  N      446.984    -225.269      36.564
  O      441.292    -221.652      37.767
  O      443.623    -220.930      36.999
  H      447.011    -227.100      38.773
  H      441.536    -220.985      38.443
  H      450.115    -227.967      38.270
  H      446.360    -223.396      35.699
  H      445.789    -226.927      36.228
  H      445.585    -225.222      38.799
  H      443.366    -226.175      39.082
  H      442.721    -225.927      36.352
  H      441.972    -224.267      37.999
  H      452.414    -224.389      36.759
  H      451.253    -223.293      36.054
  H      443.612    -223.583      38.104
  P      442.556    -228.561      38.534
  C      442.426    -229.571      40.917
  O      443.189    -228.848      39.975
  O      442.583    -229.996      37.815
  O      441.187    -227.970      38.528
  H      441.709    -230.431      37.909
  H      443.102    -230.172      41.539
  H      441.698    -230.231      40.440
  H      441.889    -228.862      41.565
  H      441.600    -220.645      33.350
  H      442.516    -222.065      33.798
  H      443.142    -220.473      34.154

 3  4  5  6  7  8  9  10  11  12  22  25  29  30  31  32 0
 6-311+G(2d,p)
 ****
 33  36  37 0
 6-311+G(2d,p)
 ****
 1  2  13  14  15  16  17  18  19  20  21  23  24  26 0
 3-21G
 ****
 27  28  34  35  38  39  40  41  42  43  44  45  46  47  48 0
 3-21G
 ****


