%nproc=1
%NoSave
%Mem=1900MB
#P OB98/GEN NMR

erre ene a

0 1
  C       94.487     -54.260      22.297
  O       93.798     -54.843      23.389
  P       94.409     -56.110      24.159
  C       94.813     -58.579      23.561
  O       94.601     -57.264      23.060
  C       95.677     -59.392      22.601
  O       97.022     -58.859      22.615
  C       95.767     -60.869      22.966
  O       95.809     -61.642      21.761
  C       97.106     -61.004      23.666
  O       97.623     -62.341      23.551
  C       97.929     -59.926      22.952
  N      102.993     -59.769      23.785
  C      102.259     -60.379      22.830
  N      100.916     -60.401      22.682
  C      100.328     -59.649      23.629
  C      100.944     -58.963      24.664
  C      102.347     -59.045      24.726
  N      103.095     -58.409      25.696
  N      100.007     -58.327      25.455
  C       98.853     -58.607      24.895
  N       98.993     -59.394      23.782
  O       93.660     -56.532      25.375
  O       95.910     -55.684      24.504
  H       98.576     -62.300      23.765
  H       96.165     -56.020      25.385
  H      102.827     -60.930      22.082
  H       97.890     -58.278      25.257
  H       98.370     -60.305      22.021
  H       96.988     -60.780      24.733
  H       94.935     -61.204      23.593
  H       95.283     -59.264      21.582
  H       93.839     -59.066      23.672
  H      104.097     -58.423      25.591
  H      102.631     -57.732      26.288
  H       95.286     -58.520      24.550
  P       95.433     -63.201      21.912
  C       96.552     -65.160      23.212
  O       96.648     -63.836      22.738
  O       95.100     -63.827      20.597
  O       94.209     -63.128      22.945
  H       94.255     -62.316      23.497
  H       97.456     -65.397      23.781
  H       96.482     -65.857      22.371
  H       95.683     -65.273      23.862
  H       93.923     -53.433      21.920
  H       94.611     -54.989      21.524
  H       95.447     -53.918      22.623

 3  4  5  6  7  8  9  10  11  12  22  25  29  30  31  32 0
 6-311+G(2d,p)
 ****
 33  36  37 0
 6-311+G(2d,p)
 ****
 1  2  13  14  15  16  17  18  19  20  21  23  24  26 0
 3-21G
 ****
 27  28  34  35  38  39  40  41  42  43  44  45  46  47  48 0
 3-21G
 ****


