%nproc=1
%NoSave
%Mem=1900MB
#P OB98/GEN NMR

erre ene a

0 1
  C      402.033     729.811    1185.801
  O      400.782     730.116    1186.448
  P      400.113     728.984    1187.394
  C      400.609     730.112    1189.672
  O      399.602     729.695    1188.745
  C      400.079     731.253    1190.567
  O      400.001     732.491    1189.784
  C      398.635     731.017    1191.118
  O      398.479     730.340    1192.348
  C      398.187     732.479    1191.357
  O      398.694     732.926    1192.635
  C      398.874     733.265    1190.237
  N      394.625     735.720    1188.775
  C      395.255     735.638    1189.952
  N      396.389     734.978    1190.272
  C      396.876     734.326    1189.187
  C      396.342     734.317    1187.907
  C      395.153     735.056    1187.716
  N      394.499     735.139    1186.497
  N      397.120     733.556    1187.050
  C      398.085     733.097    1187.815
  N      397.989     733.549    1189.115
  O      400.927     727.734    1187.576
  O      398.738     728.682    1186.630
  H      399.669     732.921    1192.548
  H      398.550     727.709    1186.701
  H      394.786     736.176    1190.773
  H      398.888     732.429    1187.473
  H      399.260     734.234    1190.573
  H      397.107     732.555    1191.379
  H      398.001     730.567    1190.339
  H      400.784     731.399    1191.409
  H      401.486     730.470    1189.130
  H      393.636     735.638    1186.447
  H      394.854     734.592    1185.706
  H      400.921     729.252    1190.235
  P      397.028     729.867    1192.876
  C      397.765     727.330    1192.724
  O      397.281     728.407    1193.524
  O      395.945     729.942    1191.844
  O      396.836     730.809    1194.150
  H      397.428     730.618    1194.897
  H      398.050     726.512    1193.370
  H      398.633     727.652    1192.136
  H      396.958     726.996    1192.042
  H      402.346     730.650    1185.215
  H      401.908     728.959    1185.165
  H      402.775     729.597    1186.542

 3  4  5  6  7  8  9  10  11  12  22  25  29  30  31  32 0
 6-311+G(2d,p)
 ****
 33  36  37 0
 6-311+G(2d,p)
 ****
 1  2  13  14  15  16  17  18  19  20  21  23  24  26 0
 3-21G
 ****
 27  28  34  35  38  39  40  41  42  43  44  45  46  47  48 0
 3-21G
 ****


