%nproc=1
%NoSave
%Mem=1900MB
#P OB98/GEN NMR

erre ene a

0 1
  C     -270.896    -236.990    -557.848
  O     -271.041    -237.037    -556.441
  H     -270.309    -236.103    -558.105
  H     -271.878    -236.902    -558.322
  H     -270.375    -237.875    -558.220
  P     -271.745    -238.316    -555.782
  C     -274.053    -237.984    -556.891
  O     -272.895    -238.802    -556.794
  C     -275.232    -238.779    -557.470
  O     -275.460    -239.947    -556.638
  C     -276.540    -237.985    -557.536
  O     -277.250    -238.342    -558.721
  C     -277.304    -238.463    -556.312
  O     -278.716    -238.328    -556.469
  C     -276.835    -239.913    -556.201
  N     -280.047    -240.759    -552.391
  C     -280.289    -240.318    -553.686
  N     -281.572    -240.048    -554.006
  N     -279.351    -240.156    -554.581
  C     -278.118    -240.489    -554.128
  C     -277.747    -240.935    -552.877
  C     -278.794    -241.085    -551.888
  O     -278.640    -241.452    -550.732
  N     -276.396    -241.139    -552.802
  C     -275.942    -240.825    -554.000
  N     -276.947    -240.412    -554.839
  O     -272.200    -238.123    -554.370
  O     -270.648    -239.474    -555.891
  H     -279.129    -238.720    -555.675
  H     -270.238    -239.649    -555.027
  H     -280.810    -240.851    -551.739
  H     -274.908    -240.870    -554.313
  H     -277.414    -240.596    -556.841
  H     -276.999    -237.882    -555.433
  H     -282.350    -240.176    -553.367
  H     -276.370    -236.906    -557.516
  H     -281.780    -239.759    -554.947
  H     -274.945    -239.147    -558.462
  H     -273.822    -237.139    -557.545
  H     -274.312    -237.602    -555.897
  P     -277.019    -237.481    -560.055
  C     -279.206    -236.158    -559.791
  O     -277.788    -236.080    -559.908
  O     -277.268    -238.205    -561.336
  O     -275.472    -237.043    -559.936
  H     -275.082    -237.018    -560.832
  H     -279.611    -235.172    -559.699
  H     -279.461    -236.731    -558.924
  H     -279.610    -236.630    -560.662

 6  7  8  9  10  11  12  13  14  15  26  29  33  34 0
 6-311+G(2d,p)
 ****
 36  38  39  40  41 0
 6-311+G(2d,p)
 ****
 1  2  3  4  5  16  17  18  19  20  21  22  23  24  25 0
 3-21G
 ****
 27  28  30  31  32  35  37  42  43  44  45  46  47 0
 3-21G
 ****
 48  49 0
 3-21G
 ****


