%nproc=1
%NoSave
%Mem=1900MB
#P OB98/GEN NMR

erre ene a

0 1
  C       11.181      45.294     -11.562
  O       10.313      44.184     -11.672
  H       11.537      45.563     -12.560
  H       12.043      45.041     -10.938
  H       10.651      46.147     -11.132
  P        9.764      43.570     -10.293
  C       10.929      42.154      -8.436
  O       11.028      42.765      -9.713
  C       12.259      42.280      -7.700
  O       12.791      43.615      -7.835
  C       12.167      42.028      -6.200
  O       12.108      40.650      -5.873
  C       13.464      42.664      -5.737
  O       14.567      41.793      -6.049
  C       13.500      43.940      -6.609
  N       12.891      45.099      -5.955
  C       13.540      45.590      -4.816
  O       14.562      45.051      -4.396
  N       12.994      46.665      -4.155
  C       11.903      47.210      -4.597
  N       11.400      48.261      -3.896
  C       11.198      46.736      -5.802
  C       11.739      45.691      -6.423
  O        8.789      42.392     -10.766
  O        9.145      44.539      -9.344
  H       14.280      40.886      -5.838
  H        8.495      41.867      -9.983
  H       10.286      47.215      -6.125
  H       11.273      45.286      -7.315
  H       14.529      44.196      -6.886
  H       13.493      42.846      -4.661
  H       11.330      42.573      -5.750
  H       12.973      41.594      -8.176
  H       11.871      48.524      -3.041
  H       10.672      41.099      -8.576
  H       10.471      48.629      -4.058
  H       10.143      42.639      -7.849
  P       11.208      40.221      -4.614
  C       11.470      40.278      -2.031
  O       12.055      40.559      -3.294
  O       11.244      38.624      -4.673
  O        9.808      40.752      -4.629
  H       10.378      38.242      -4.434
  H       12.150      40.556      -1.253
  H       11.257      39.232      -1.962
  H       10.562      40.835      -1.927

 6  7  8  9  10  11  12  13  14  15  16  26  30  31  32  33  35 0
 6-311+G(2d,p)
 ****
 37  38 0
 6-311+G(2d,p)
 ****
 1  2  3  4  5  17  18  19  20  21  22  23  24  25 0
 3-21G
 ****
 27  28  29  34  36  39  40  41  42  43  44  45  46 0
 3-21G
 ****


