%nproc=1
%NoSave
%Mem=1900MB
#P OB98/GEN NMR

erre ene a

0 1
  C     -399.414    -420.480     -93.533
  O     -400.014    -420.544     -92.251
  P     -400.371    -419.213     -91.428
  C     -398.826    -419.703     -89.427
  O     -399.062    -418.872     -90.558
  C     -399.441    -419.108     -88.159
  O     -399.363    -420.072     -87.077
  C     -398.779    -417.805     -87.673
  O     -399.821    -417.014     -87.095
  C     -397.834    -418.310     -86.601
  O     -397.423    -417.281     -85.702
  C     -398.672    -419.436     -85.975
  N     -397.853    -420.381     -85.222
  C     -397.718    -420.144     -83.848
  O     -398.218    -419.136     -83.343
  N     -396.986    -421.022     -83.092
  C     -396.343    -421.988     -83.676
  N     -395.631    -422.832     -82.871
  C     -396.351    -422.206     -85.139
  C     -397.134    -421.374     -85.847
  O     -401.642    -419.265     -90.651
  O     -400.347    -418.062     -92.541
  H     -396.990    -417.704     -84.929
  H     -401.178    -418.086     -93.083
  H     -395.763    -422.986     -85.584
  H     -397.200    -421.455     -86.915
  H     -399.437    -419.022     -85.305
  H     -396.929    -418.726     -87.067
  H     -398.267    -417.255     -88.466
  H     -400.511    -418.931     -88.357
  H     -395.670    -422.660     -81.875
  H     -397.742    -419.786     -89.289
  H     -395.175    -423.662     -83.218
  H     -399.218    -420.711     -89.616
  P     -399.531    -415.543     -86.529
  C     -400.232    -415.841     -84.084
  O     -399.147    -415.699     -84.984
  O     -400.597    -414.532     -86.814
  O     -398.139    -415.124     -87.215
  H     -398.018    -414.154     -87.135
  H     -399.853    -416.216     -83.123
  H     -400.972    -416.541     -84.475
  H     -400.705    -414.865     -83.922
  H     -399.261    -421.471     -93.905
  H     -398.473    -419.976     -93.461
  H     -400.056    -419.944     -94.201

 3  4  5  6  7  8  9  10  11  12  13  23  27  28  29  30  32 0
 6-311+G(2d,p)
 ****
 34  35 0
 6-311+G(2d,p)
 ****
 1  2  14  15  16  17  18  19  20  21  22  24  25  26 0
 3-21G
 ****
 31  33  36  37  38  39  40  41  42  43  44  45  46 0
 3-21G
 ****


