%nproc=1
%NoSave
%Mem=1900MB
#P OB98/GEN NMR

erre ene a

0 1
  C      -46.219    -134.263     -18.947
  O      -47.491    -134.180     -19.550
  H      -46.170    -135.187     -18.363
  H      -46.075    -133.414     -18.274
  H      -45.422    -134.279     -19.695
  P      -47.692    -133.188     -20.790
  C      -48.028    -135.046     -22.548
  O      -47.218    -133.960     -22.116
  C      -48.450    -134.897     -24.011
  O      -47.343    -134.415     -24.803
  C      -48.866    -136.229     -24.634
  O      -50.208    -136.616     -24.400
  C      -48.623    -135.969     -26.119
  O      -49.761    -135.328     -26.720
  C      -47.419    -135.024     -26.104
  N      -43.549    -135.618     -29.387
  C      -44.687    -134.847     -29.516
  N      -44.838    -134.197     -30.691
  N      -45.595    -134.741     -28.582
  C      -45.358    -135.521     -27.501
  C      -44.273    -136.337     -27.265
  C      -43.245    -136.405     -28.284
  O      -42.220    -137.079     -28.223
  N      -44.375    -136.974     -26.052
  C      -45.551    -136.600     -25.588
  N      -46.173    -135.698     -26.420
  O      -46.530    -132.099     -20.592
  O      -49.036    -132.531     -20.874
  H      -50.491    -135.972     -26.762
  H      -46.790    -131.257     -21.008
  H      -42.869    -135.641     -30.126
  H      -45.986    -136.930     -24.651
  H      -47.539    -134.211     -26.831
  H      -48.457    -136.900     -26.671
  H      -44.227    -134.342     -31.480
  H      -48.191    -137.028     -24.311
  H      -45.768    -133.844     -30.924
  H      -49.249    -134.149     -24.083
  H      -48.910    -135.054     -21.905
  H      -47.506    -135.994     -22.395
  P      -50.616    -138.164     -24.443
  C      -50.023    -138.415     -21.919
  O      -49.842    -138.885     -23.239
  O      -49.863    -138.692     -25.751
  O      -52.082    -138.426     -24.501
  H      -50.474    -138.695     -26.514
  H      -49.437    -139.006     -21.246
  H      -51.056    -138.490     -21.652
  H      -49.713    -137.393     -21.859

 6  7  8  9  10  11  12  13  14  15  26  29  33  34 0
 6-311+G(2d,p)
 ****
 36  38  39  40  41 0
 6-311+G(2d,p)
 ****
 1  2  3  4  5  16  17  18  19  20  21  22  23  24  25 0
 3-21G
 ****
 27  28  30  31  32  35  37  42  43  44  45  46  47 0
 3-21G
 ****
 48  49 0
 3-21G
 ****


