%nproc=1
%NoSave
%Mem=1900MB
#P OB98/GEN NMR

erre ene a

0 1
  C      360.335    -757.474     193.586
  O      359.286    -756.678     193.078
  P      359.063    -755.153     193.498
  C      358.906    -753.875     195.751
  O      358.716    -755.098     195.065
  C      359.077    -754.045     197.267
  O      360.353    -754.658     197.533
  C      359.101    -752.680     197.960
  O      357.883    -752.032     198.292
  C      360.076    -752.832     199.118
  O      359.422    -753.089     200.358
  C      360.930    -754.042     198.700
  N      365.207    -751.979     200.483
  C      364.078    -752.379     201.177
  N      364.027    -752.017     202.481
  N      363.097    -753.060     200.633
  C      363.256    -753.273     199.301
  C      364.340    -752.939     198.516
  C      365.431    -752.228     199.138
  O      366.400    -751.773     198.538
  N      364.115    -753.247     197.197
  C      362.893    -753.735     197.181
  N      362.314    -753.728     198.431
  O      358.260    -754.314     192.554
  O      360.579    -754.589     193.465
  H      358.782    -753.815     200.220
  H      360.546    -753.661     193.167
  H      365.896    -751.392     200.933
  H      362.358    -754.064     196.292
  H      360.920    -754.810     199.498
  H      360.664    -751.921     199.258
  H      364.682    -751.372     202.882
  H      359.591    -751.977     197.265
  H      363.145    -752.144     202.963
  H      358.328    -754.731     197.677
  H      358.035    -753.236     195.534
  H      359.782    -753.353     195.349
  P      357.702    -750.471     198.619
  C      359.095    -748.665     199.775
  O      358.807    -750.050     199.700
  O      356.341    -750.408     199.463
  O      357.612    -749.580     197.420
  H      355.957    -749.503     199.410
  H      360.043    -748.525     200.299
  H      358.308    -748.152     200.334
  H      359.179    -748.224     198.769
  H      360.278    -758.454     193.160
  H      360.248    -757.542     194.650
  H      361.275    -757.029     193.333

 3  4  5  6  7  8  9  10  11  12  23  26  30  31 0
 6-311+G(2d,p)
 ****
 33  35  36  37  38 0
 6-311+G(2d,p)
 ****
 1  2  13  14  15  16  17  18  19  20  21  22  24  25 0
 3-21G
 ****
 27  28  29  32  34  39  40  41  42  43  44  45  46  47  48  49 0
 3-21G
 ****


