%nproc=1
%NoSave
%Mem=1900MB
#P OB98/GEN NMR

erre ene a

0 1
  C     1037.879     372.637     654.929
  O     1037.042     373.101     653.882
  H     1038.067     373.470     655.600
  H     1038.836     372.298     654.517
  H     1037.397     371.833     655.467
  P     1036.681     372.051     652.720
  C     1034.344     373.081     652.412
  O     1035.072     371.922     652.780
  C     1032.874     372.709     652.137
  O     1032.830     371.818     650.995
  C     1032.174     371.986     653.292
  O     1030.789     372.397     653.342
  C     1032.217     370.546     652.909
  O     1031.237     369.754     653.543
  C     1032.128     370.653     651.397
  N     1031.787     367.674     647.246
  C     1031.241     368.887     647.554
  N     1031.406     369.618     648.660
  C     1032.280     369.004     649.499
  C     1032.901     367.805     649.330
  C     1032.628     367.078     648.142
  N     1033.126     365.849     647.849
  N     1033.693     367.490     650.451
  C     1033.516     368.536     651.271
  N     1032.657     369.452     650.748
  O     1037.406     370.754     652.772
  O     1036.904     372.920     651.401
  H     1030.364     370.156     653.341
  H     1036.504     373.795     651.474
  H     1030.585     369.310     646.792
  H     1033.994     368.630     652.230
  H     1031.053     370.737     651.064
  H     1033.214     370.117     653.204
  H     1032.651     372.201     654.278
  H     1032.336     373.638     651.841
  H     1034.762     373.562     651.554
  H     1032.884     365.437     646.965
  H     1033.768     365.400     648.505
  H     1034.375     373.800     653.264
  P     1030.404     373.704     654.195
  C     1028.717     374.662     652.493
  O     1029.939     374.893     653.187
  O     1031.408     374.146     655.208
  O     1029.005     373.315     654.905
  H     1029.042     373.564     655.832
  H     1028.502     375.498     651.861
  H     1027.924     374.537     653.200
  H     1028.807     373.778     651.897

 6  7  8  9  10  11  12  13  14  15  25  28  32  33  34  35 0
 6-311+G(2d,p)
 ****
 36  39  40 0
 6-311+G(2d,p)
 ****
 1  2  3  4  5  16  17  18  19  20  21  22  23  24 0
 3-21G
 ****
 26  27  29  30  31  37  38  41  42  43  44  45  46  47 0
 3-21G
 ****
 48 0
 3-21G
 ****


