%nproc=1
%NoSave
%Mem=1900MB
#P OB98/GEN NMR

erre ene a

0 1
  C      373.536    -199.431     -94.132
  O      373.141    -199.813     -92.824
  P      372.495    -201.264     -92.623
  C      370.298    -202.469     -93.317
  O      371.018    -201.245     -93.257
  C      368.990    -202.297     -94.094
  O      369.278    -201.931     -95.475
  C      368.124    -203.558     -94.130
  O      366.738    -203.188     -94.124
  C      368.427    -204.156     -95.496
  O      367.374    -205.004     -95.940
  C      368.619    -202.886     -96.322
  N      368.359    -204.248    -101.188
  C      367.354    -203.847    -100.335
  N      366.090    -203.898    -100.819
  N      367.554    -203.420     -99.114
  C      368.864    -203.432     -98.760
  C      369.950    -203.784     -99.520
  C      369.711    -204.263    -100.861
  O      370.556    -204.663    -101.665
  N      371.128    -203.627     -98.823
  C      370.748    -203.213     -97.634
  N      369.387    -203.109     -97.533
  O      372.230    -201.317     -91.044
  O      373.363    -202.399     -93.055
  H      367.592    -205.273     -96.850
  H      372.883    -201.894     -90.614
  H      368.150    -204.574    -102.114
  H      371.415    -202.994     -96.807
  H      367.654    -202.450     -96.615
  H      369.352    -204.750     -95.450
  H      365.860    -204.285    -101.731
  H      368.313    -204.265     -93.309
  H      365.326    -203.655    -100.206
  H      368.432    -201.458     -93.654
  H      370.073    -202.803     -92.306
  H      370.925    -203.233     -93.795
  P      365.770    -204.096     -93.219
  C      365.031    -206.597     -93.320
  O      365.688    -205.518     -93.956
  O      364.319    -203.457     -93.473
  O      366.135    -204.132     -91.769
  H      363.733    -203.640     -92.714
  H      364.168    -206.888     -93.924
  H      364.685    -206.337     -92.315
  H      365.716    -207.445     -93.250
  H      373.947    -198.443     -94.106
  H      372.685    -199.447     -94.780
  H      374.274    -200.115     -94.496

 3  4  5  6  7  8  9  10  11  12  23  26  30  31 0
 6-311+G(2d,p)
 ****
 33  35  36  37  38 0
 6-311+G(2d,p)
 ****
 1  2  13  14  15  16  17  18  19  20  21  22  24  25 0
 3-21G
 ****
 27  28  29  32  34  39  40  41  42  43  44  45  46  47  48  49 0
 3-21G
 ****


