%nproc=1
%NoSave
%Mem=1900MB
#P OB98/GEN NMR

erre ene a

0 1
  C     -421.582    -273.577     269.878
  O     -422.856    -273.680     270.485
  H     -421.719    -273.444     268.802
  H     -421.004    -274.490     270.052
  H     -421.046    -272.714     270.279
  P     -422.878    -273.919     272.071
  C     -423.975    -276.248     271.948
  O     -424.143    -274.883     272.311
  C     -425.301    -276.999     272.064
  O     -425.664    -277.081     273.466
  C     -426.455    -276.318     271.325
  O     -427.288    -277.311     270.733
  C     -427.216    -275.607     272.430
  O     -428.586    -275.397     272.099
  C     -426.988    -276.543     273.617
  N     -429.884    -276.002     277.782
  C     -429.940    -276.869     276.751
  N     -429.115    -276.955     275.683
  C     -428.123    -276.049     275.777
  C     -427.938    -275.099     276.766
  C     -428.883    -275.089     277.805
  N     -428.847    -274.192     278.848
  N     -426.831    -274.319     276.484
  C     -426.349    -274.800     275.354
  N     -427.107    -275.836     274.879
  O     -422.847    -272.687     272.913
  O     -421.642    -274.917     272.267
  H     -428.628    -274.859     271.281
  H     -421.636    -275.613     271.584
  H     -430.757    -277.585     276.776
  H     -425.474    -274.430     274.836
  H     -427.704    -277.375     273.638
  H     -426.761    -274.625     272.618
  H     -426.107    -275.624     270.558
  H     -425.155    -278.028     271.714
  H     -423.227    -276.722     272.597
  H     -429.556    -274.264     279.561
  H     -428.098    -273.516     278.895
  H     -423.610    -276.282     270.917
  P     -426.842    -277.947     269.332
  C     -428.536    -276.491     268.034
  O     -428.063    -277.813     268.297
  O     -426.205    -279.295     269.399
  O     -425.804    -276.859     268.774
  H     -425.077    -277.319     268.314
  H     -429.344    -276.534     267.334
  H     -427.741    -275.903     267.625
  H     -428.876    -276.046     268.946

 6  7  8  9  10  11  12  13  14  15  25  28  32  33  34  35 0
 6-311+G(2d,p)
 ****
 36  39  40 0
 6-311+G(2d,p)
 ****
 1  2  3  4  5  16  17  18  19  20  21  22  23  24 0
 3-21G
 ****
 26  27  29  30  31  37  38  41  42  43  44  45  46  47 0
 3-21G
 ****
 48 0
 3-21G
 ****


