%nproc=1
%NoSave
%Mem=1900MB
#P OB98/GEN NMR

erre ene a

0 1
  C      -44.976    -227.645      97.343
  O      -46.230    -227.610      97.997
  H      -45.082    -228.206      96.412
  H      -44.237    -228.144      97.976
  H      -44.644    -226.630      97.108
  P      -46.288    -226.810      99.387
  C      -44.623    -224.947     100.131
  O      -45.514    -225.428      99.136
  C      -44.200    -223.507      99.818
  O      -43.391    -223.512      98.603
  C      -45.380    -222.554      99.559
  O      -44.969    -221.230      99.944
  C      -45.510    -222.627      98.045
  O      -46.318    -221.582      97.555
  C      -44.032    -222.618      97.665
  N      -44.338    -221.338      92.723
  C      -44.612    -220.645      93.850
  N      -44.495    -221.049      95.131
  C      -44.016    -222.304      95.194
  C      -43.680    -223.130      94.132
  C      -43.862    -222.599      92.841
  N      -43.590    -223.304      91.691
  N      -43.226    -224.352      94.591
  C      -43.287    -224.265      95.906
  N      -43.767    -223.049      96.312
  O      -45.295    -227.638     100.329
  O      -47.645    -226.670      99.991
  H      -47.248    -221.696      97.845
  H      -45.800    -228.279     100.864
  H      -44.983    -219.634      93.703
  H      -43.009    -225.045      96.603
  H      -43.584    -221.628      97.791
  H      -45.985    -223.564      97.739
  H      -46.285    -222.828     100.102
  H      -43.556    -223.139     100.626
  H      -43.743    -225.597     100.152
  H      -45.115    -224.978     101.106
  H      -43.762    -222.860      90.806
  H      -43.252    -224.252      91.764
  P      -45.141    -220.772     101.475
  C      -45.303    -222.964     102.899
  O      -44.495    -221.896     102.421
  O      -46.709    -221.000     101.717
  O      -44.759    -219.361     101.778
  H      -47.027    -220.382     102.403
  H      -44.711    -223.613     103.510
  H      -45.694    -223.514     102.069
  H      -46.111    -222.568     103.478

 6  7  8  9  10  11  12  13  14  15  25  28  32  33  34  35 0
 6-311+G(2d,p)
 ****
 36  37  40 0
 6-311+G(2d,p)
 ****
 1  2  3  4  5  16  17  18  19  20  21  22  23  24 0
 3-21G
 ****
 26  27  29  30  31  38  39 41  42  43  44  45  46  47  48 0
 3-21G
 ****


