%nproc=1
%NoSave
%Mem=1900MB
#P OB98/GEN NMR

erre ene a

0 1
  C      -38.379      95.295    1176.727
  O      -38.196      93.896    1176.713
  H      -39.199      95.535    1177.410
  H      -38.632      95.658    1175.731
  H      -37.469      95.787    1177.088
  P      -37.053      93.331    1175.736
  C      -35.622      92.554    1177.750
  O      -35.708      93.401    1176.611
  C      -34.209      91.987    1177.890
  O      -33.986      90.956    1176.911
  C      -33.100      93.012    1177.687
  O      -32.864      93.734    1178.890
  C      -31.928      92.104    1177.348
  O      -31.372      91.555    1178.557
  C      -32.588      90.988    1176.526
  N      -29.701      90.219    1172.352
  C      -29.414      90.117    1173.665
  N      -30.215      90.390    1174.725
  C      -31.427      90.794    1174.311
  C      -31.858      90.954    1173.001
  C      -30.934      90.628    1171.991
  N      -31.227      90.736    1170.650
  N      -33.166      91.389    1172.964
  C      -33.537      91.440    1174.223
  N      -32.507      91.129    1175.082
  O      -36.989      93.954    1174.380
  O      -37.388      91.765    1175.746
  H      -30.904      92.286    1179.009
  H      -37.636      91.473    1176.641
  H      -28.415      89.776    1173.909
  H      -34.537      91.678    1174.575
  H      -32.167      89.999    1176.762
  H      -31.125      92.629    1176.835
  H      -33.304      93.672    1176.837
  H      -34.139      91.512    1178.879
  H      -36.339      91.730    1177.666
  H      -30.454      90.682    1170.001
  H      -32.104      91.173    1170.388
  H      -35.882      93.154    1178.627
  P      -32.207      95.191    1178.857
  C      -34.417      96.287    1178.145
  O      -33.062      96.020    1177.787
  O      -30.731      95.199    1178.659
  O      -32.638      95.847    1180.251
  H      -32.081      96.620    1180.451
  H      -34.890      96.843    1177.362
  H      -34.441      96.856    1179.051
  H      -34.936      95.363    1178.290

 6  7  8  9  10  11  12  13  14  15  25  28  32  33  34  35 0
 6-311+G(2d,p)
 ****
 36  39  40 0
 6-311+G(2d,p)
 ****
 1  2  3  4  5  16  17  18  19  20  21  22  23  24 0
 3-21G
 ****
 26  27  29  30  31  37  38  41  42  43  44  45  46  47 0
 3-21G
 ****
 48 0
 3-21G
 ****


