%nproc=1
%NoSave
%Mem=1900MB
#P OB98/GEN NMR

erre ene a

0 1
  C      195.175     206.046     113.943
  O      196.022     206.352     115.032
  H      194.929     204.982     113.978
  H      195.688     206.257     113.002
  H      194.251     206.625     114.003
  P      196.434     207.891     115.220
  C      194.578     208.438     116.948
  O      195.092     208.670     115.645
  C      194.950     209.582     117.887
  O      194.253     210.790     117.457
  C      194.579     209.339     119.359
  O      195.586     209.948     120.176
  C      193.293     210.134     119.520
  O      193.021     210.466     120.879
  C      193.603     211.332     118.623
  N      191.775     215.971     117.962
  C      193.053     215.546     118.268
  N      193.993     216.504     118.422
  N      193.383     214.290     118.409
  C      192.351     213.438     118.195
  C      191.043     213.731     117.891
  C      190.685     215.128     117.763
  O      189.567     215.567     117.514
  N      190.294     212.586     117.781
  C      191.148     211.606     118.013
  N      192.408     212.074     118.270
  O      196.688     208.372     113.715
  O      197.617     208.136     116.094
  H      192.741     209.648     121.339
  H      197.633     208.285     113.488
  H      191.572     216.952     117.877
  H      190.908     210.552     118.012
  H      194.288     212.043     119.100
  H      192.443     209.561     119.130
  H      193.822     217.487     118.282
  H      194.469     208.284     119.629
  H      194.945     216.209     118.604
  H      196.022     209.784     117.784
  H      195.001     207.504     117.335
  H      193.489     208.338     116.893
  P      195.913     209.277     121.593
  C      197.370     207.224     120.942
  O      196.102     207.702     121.366
  O      194.506     209.357     122.357
  O      196.996     209.959     122.361
  H      194.654     209.396     123.319
  H      197.333     206.160     120.837
  H      198.111     207.485     121.669
  H      197.622     207.667     120.001

 6  7  8  9  10  11  12  13  14  15  26  29  33  34 0
 6-311+G(2d,p)
 ****
 36  38  39  40  41 0
 6-311+G(2d,p)
 ****
 1  2  3  4  5  16  17  18  19  20  21  22  23  24  25 0
 3-21G
 ****
 27  28  30  31  32  35  37  42  43  44  45  46  47 0
 3-21G
 ****
 48  49 0
 3-21G
 ****


