%nproc=1
%NoSave
%Mem=1900MB
#P OB98/GEN NMR

erre ene a

0 1
  C       52.371    -302.174     225.581
  O       52.213    -301.613     226.871
  H       52.989    -303.070     225.663
  H       52.869    -301.461     224.920
  H       51.399    -302.450     225.166
  P       51.313    -300.290     226.973
  C       53.156    -298.596     227.676
  O       52.015    -299.348     228.065
  C       54.001    -298.269     228.902
  O       53.201    -297.538     229.862
  C       54.506    -299.494     229.648
  O       55.628    -300.087     229.015
  C       54.820    -298.901     231.013
  O       56.115    -298.285     231.031
  C       53.725    -297.843     231.176
  N       52.008    -297.859     235.985
  C       53.064    -297.248     235.405
  N       53.448    -297.285     234.112
  C       52.591    -298.025     233.386
  C       51.472    -298.704     233.835
  C       51.182    -298.599     235.205
  N       50.123    -299.240     235.802
  N       50.870    -299.388     232.798
  C       51.604    -299.121     231.740
  N       52.654    -298.297     232.044
  O       49.990    -300.808     227.709
  O       51.004    -299.632     225.669
  H       56.753    -298.983     230.783
  H       49.287    -300.956     227.048
  H       53.691    -296.662     236.071
  H       51.426    -299.500     230.740
  H       54.110    -296.907     231.600
  H       54.808    -299.672     231.783
  H       53.697    -300.229     229.761
  H       54.837    -297.626     228.593
  H       52.834    -297.663     227.200
  H       53.738    -299.178     226.953
  H       50.015    -299.178     236.801
  H       49.569    -299.887     235.251
  P       55.721    -301.685     229.004
  C       58.245    -302.286     229.231
  O       57.137    -302.075     228.369
  O       54.666    -302.120     227.877
  O       55.429    -302.335     230.315
  H       54.232    -302.955     228.134
  H       59.107    -302.537     228.649
  H       58.025    -303.087     229.906
  H       58.438    -301.393     229.788

 6  7  8  9  10  11  12  13  14  15  25  28  32  33  34  35 0
 6-311+G(2d,p)
 ****
 36  37  40 0
 6-311+G(2d,p)
 ****
 1  2  3  4  5  16  17  18  19  20  21  22  23  24 0
 3-21G
 ****
 26  27  29  30  31  38  39 41  42  43  44  45  46  47  48 0
 3-21G
 ****


