%nproc=1
%NoSave
%Mem=1900MB
#P OB98/GEN NMR

erre ene a

0 1
  C       46.153    -169.034     -47.794
  O       46.435    -169.471     -49.108
  H       45.312    -169.615     -47.401
  H       45.877    -167.975     -47.801
  H       47.022    -169.187     -47.149
  P       47.606    -168.692     -49.881
  C       46.033    -167.087     -51.172
  O       46.964    -168.159     -51.251
  C       45.711    -166.557     -52.568
  O       44.667    -165.561     -52.506
  C       46.893    -165.911     -53.286
  O       47.699    -166.888     -53.919
  C       46.176    -165.006     -54.276
  O       45.721    -165.755     -55.426
  C       44.985    -164.504     -53.452
  N       44.895    -159.467     -53.825
  C       44.668    -160.434     -54.781
  N       44.410    -160.001     -56.035
  N       44.707    -161.720     -54.539
  C       45.037    -162.010     -53.257
  C       45.283    -161.142     -52.219
  C       45.183    -159.723     -52.487
  O       45.288    -158.819     -51.667
  N       45.568    -161.821     -51.062
  C       45.524    -163.094     -51.409
  N       45.214    -163.260     -52.734
  O       48.581    -169.871     -50.369
  O       48.347    -167.683     -49.073
  H       45.208    -165.164     -56.007
  H       49.503    -169.564     -50.293
  H       44.821    -158.491     -54.062
  H       45.698    -163.928     -50.741
  H       44.094    -164.345     -54.069
  H       46.838    -164.227     -54.660
  H       44.650    -159.067     -56.341
  H       47.484    -165.295     -52.594
  H       44.319    -160.712     -56.750
  H       45.318    -167.398     -53.156
  H       46.468    -166.282     -50.569
  H       45.116    -167.441     -50.691
  P       49.203    -167.082     -53.403
  C       49.644    -165.406     -55.337
  O       50.184    -166.402     -54.476
  O       49.453    -168.651     -53.610
  O       49.430    -166.686     -51.985
  H       49.430    -169.108     -52.749
  H       50.410    -165.047     -55.992
  H       49.267    -164.594     -54.751
  H       48.849    -165.828     -55.915

 6  7  8  9  10  11  12  13  14  15  26  29  33  34 0
 6-311+G(2d,p)
 ****
 36  38  39  40  41 0
 6-311+G(2d,p)
 ****
 1  2  3  4  5  16  17  18  19  20  21  22  23  24  25 0
 3-21G
 ****
 27  28  30  31  32  35  37  42  43  44  45  46  47 0
 3-21G
 ****
 48  49 0
 3-21G
 ****


