%nproc=1
%NoSave
%Mem=1900MB
#P OB98/GEN NMR

erre ene a

0 1
  C      375.193     133.784     163.376
  O      374.385     132.740     163.893
  P      373.260     132.025     162.993
  C      374.608     130.030     162.044
  O      374.064     131.315     161.799
  C      374.057     129.018     161.037
  O      372.625     128.882     161.252
  C      374.269     129.408     159.567
  O      374.490     128.196     158.835
  C      372.940     130.027     159.186
  O      372.712     130.016     157.784
  C      371.973     129.157     159.998
  N      370.682     129.804     160.209
  C      369.836     129.940     159.107
  O      370.181     129.550     157.993
  N      368.606     130.522     159.291
  C      368.286     131.003     160.453
  N      367.034     131.517     160.599
  C      369.192     130.978     161.616
  C      370.350     130.351     161.428
  O      372.150     132.915     162.555
  O      372.793     130.774     163.869
  H      372.905     129.120     157.448
  H      372.090     131.004     164.524
  H      368.891     131.418     162.554
  H      371.069     130.262     162.231
  H      371.824     128.192     159.501
  H      372.910     131.067     159.523
  H      375.123     130.076     159.428
  H      374.512     128.042     161.244
  H      366.386     131.358     159.834
  H      374.318     129.719     163.051
  H      366.608     131.600     161.515
  H      375.701     130.077     161.996
  P      375.286     128.282     157.442
  C      377.398     127.058     158.315
  O      376.853     128.237     157.762
  O      375.072     129.825     157.046
  O      374.792     127.403     156.341
  H      375.141     129.916     156.078
  H      378.474     127.203     158.458
  H      377.252     126.213     157.637
  H      376.942     126.841     159.283
  H      375.872     134.118     164.133
  H      374.570     134.599     163.071
  H      375.747     133.423     162.534

 3  4  5  6  7  8  9  10  11  12  13  23  27  28  29  30  32 0
 6-311+G(2d,p)
 ****
 34  35 0
 6-311+G(2d,p)
 ****
 1  2  14  15  16  17  18  19  20  21  22  24  25  26 0
 3-21G
 ****
 31  33  36  37  38  39  40  41  42  43  44  45  46 0
 3-21G
 ****


