%nproc=1
%NoSave
%Mem=1900MB
#P OB98/GEN NMR

erre ene a

0 1
  C      237.451     509.668     557.227
  O      238.280     510.793     557.536
  P      237.640     511.970     558.425
  C      235.847     512.725     556.687
  O      237.008     513.065     557.441
  C      234.881     513.918     556.644
  O      234.436     514.275     557.960
  C      235.515     515.172     556.075
  O      235.593     515.109     554.658
  C      234.572     516.259     556.594
  O      233.502     516.519     555.672
  C      234.036     515.656     557.908
  N      234.497     516.379     559.095
  C      234.094     517.724     559.159
  O      233.422     518.232     558.264
  N      234.498     518.460     560.255
  C      235.255     517.918     561.164
  N      235.614     518.698     562.211
  C      235.712     516.517     561.098
  C      235.298     515.805     560.043
  O      238.917     512.707     559.040
  O      236.717     511.476     559.499
  H      232.855     517.068     556.167
  H      238.725     513.051     559.920
  H      236.346     516.098     561.872
  H      235.592     514.771     559.911
  H      232.942     515.667     557.905
  H      235.096     517.213     556.728
  H      236.515     515.315     556.504
  H      234.016     513.624     556.033
  H      235.283     519.652     562.229
  H      235.351     511.858     557.133
  H      236.208     518.380     562.975
  H      236.158     512.427     555.687
  P      236.805     514.294     554.014
  C      238.133     516.497     553.938
  O      237.646     515.381     553.191
  O      236.081     513.478     552.833
  O      237.586     513.387     554.915
  H      236.709     512.859     552.425
  H      238.850     517.034     553.313
  H      238.639     516.157     554.839
  H      237.306     517.168     554.188
  H      238.004     508.970     556.634
  H      236.592     509.997     556.681
  H      237.137     509.196     558.135

 3  4  5  6  7  8  9  10  11  12  13  21  23  27  28  29  30  32 0
 6-311+G(2d,p)
 ****
 34  35 0
 6-311+G(2d,p)
 ****
 1  2  14  15  16  17  18  19  20  22  24  25  26 0
 3-21G
 ****
 31  33  36  37  38  39  40  41  42  43  44  45  46 0
 3-21G
 ****


