%nproc=1
%NoSave
%Mem=1900MB
#P OB98/GEN NMR

erre ene a

0 1
  C      292.729     112.108      45.822
  O      293.389     113.033      44.980
  H      291.889     111.676      45.275
  H      292.349     112.600      46.721
  H      293.416     111.301      46.102
  P      294.501     113.992      45.634
  C      296.277     112.888      44.115
  O      295.897     113.214      45.452
  C      297.187     111.656      44.087
  O      296.470     110.500      44.572
  C      297.662     111.273      42.693
  O      298.576     112.187      42.126
  C      298.066     109.817      42.873
  O      299.401     109.652      43.344
  C      297.069     109.339      43.957
  N      296.060     108.435      43.413
  C      296.377     107.081      43.448
  O      297.445     106.645      43.891
  N      295.444     106.231      42.927
  C      294.269     106.605      42.333
  O      293.488     105.796      41.842
  C      294.000     108.051      42.298
  C      294.892     108.890      42.833
  O      294.234     114.433      47.041
  O      294.620     115.200      44.591
  H      299.537     108.694      43.487
  H      295.071     115.979      44.999
  H      295.650     105.244      42.953
  H      293.080     108.385      41.834
  H      294.717     109.962      42.819
  H      297.602     108.807      44.754
  H      297.987     109.261      41.935
  H      296.790     111.270      42.030
  H      298.034     111.837      44.759
  H      296.822     113.745      43.704
  H      295.381     112.716      43.510
  P      298.346     112.893      40.709
  C      298.145     115.418      41.300
  O      297.466     114.219      40.946
  O      298.002     112.001      39.557
  O      299.809     113.511      40.420
  H      299.959     113.472      39.458
  H      297.434     116.208      41.423
  H      298.836     115.678      40.526
  H      298.676     115.270      42.217

 6  7  8  9  10  11  12  13  14  15  16  26  31  32  33  34  35 0
 6-311+G(2d,p)
 ****
 36  37 0
 6-311+G(2d,p)
 ****
 1  2  3  4  5  17  18  19  20  21  22  23  24  25 0
 3-21G
 ****
 27  28  29  30  38  39  40  41  42  43  44  45 0
 3-21G
 ****


