%nproc=1
%NoSave
%Mem=1900MB
#P OB98/GEN NMR

erre ene a

0 1
  C       91.019      57.750    -664.331
  O       89.988      57.779    -665.295
  H       90.851      58.558    -663.613
  H       91.988      57.912    -664.813
  H       91.027      56.802    -663.790
  P       89.879      56.579    -666.352
  C       90.766      58.220    -668.136
  O       90.886      56.928    -667.554
  C       91.159      58.165    -669.609
  O       90.972      59.453    -670.228
  C       92.627      57.796    -669.846
  O       92.844      56.410    -669.651
  C       92.804      58.283    -671.283
  O       92.285      57.323    -672.216
  C       91.955      59.576    -671.280
  N       92.757      60.791    -671.117
  C       93.509      61.191    -672.214
  O       93.554      60.559    -673.264
  N       94.237      62.344    -672.049
  C       94.343      63.068    -670.900
  O       95.042      64.066    -670.783
  C       93.550      62.581    -669.760
  C       92.805      61.481    -669.910
  O       88.496      56.200    -666.782
  O       90.619      55.361    -665.613
  H       92.386      57.707    -673.108
  H       89.952      54.762    -665.228
  H       94.797      62.648    -672.829
  H       93.607      63.123    -668.825
  H       92.223      61.100    -669.090
  H       91.397      59.666    -672.227
  H       93.853      58.434    -671.546
  H       93.276      58.394    -669.193
  H       90.498      57.442    -670.111
  H       91.434      58.911    -667.612
  H       89.734      58.566    -668.027
  P       94.323      55.838    -669.432
  C       94.678      55.490    -671.946
  O       95.161      56.129    -670.772
  O       94.389      54.428    -668.941
  O       94.966      56.847    -668.362
  H       95.019      56.416    -667.493
  H       95.303      55.748    -672.775
  H       93.676      55.812    -672.141
  H       94.691      54.429    -671.806

 6  7  8  9  10  11  12  13  14  15  16  26  31  32  33  34  35 0
 6-311+G(2d,p)
 ****
 36  37 0
 6-311+G(2d,p)
 ****
 1  2  3  4  5  17  18  19  20  21  22  23  24  25 0
 3-21G
 ****
 27  28  29  30  38  39  40  41  42  43  44  45 0
 3-21G
 ****


