%nproc=1
%NoSave
%Mem=1900MB
#P OB98/GEN NMR

erre ene a

0 1
  C       37.395    -209.753    -313.974
  O       38.723    -210.183    -314.289
  P       39.136    -210.168    -315.844
  C       39.629    -208.278    -317.567
  O       39.605    -208.675    -316.201
  C       39.905    -206.783    -317.689
  O       38.792    -206.007    -317.206
  C       41.104    -206.300    -316.884
  O       42.330    -206.577    -317.545
  C       40.845    -204.802    -316.836
  O       41.313    -204.184    -318.048
  C       39.309    -204.730    -316.754
  N       36.650    -201.591    -313.794
  C       36.944    -201.501    -315.141
  N       36.434    -200.435    -315.799
  N       37.671    -202.374    -315.786
  C       38.089    -203.403    -315.007
  C       37.867    -203.603    -313.666
  C       37.084    -202.611    -312.956
  O       36.822    -202.625    -311.757
  N       38.445    -204.767    -313.225
  C       38.993    -205.286    -314.307
  N       38.819    -204.488    -315.412
  O       37.724    -210.299    -316.590
  O       40.078    -211.255    -316.232
  H       42.277    -204.351    -318.102
  H       37.846    -210.714    -317.464
  H       36.091    -200.886    -313.346
  H       39.522    -206.231    -314.343
  H       38.903    -203.959    -317.416
  H       41.364    -204.305    -316.008
  H       35.808    -199.764    -315.380
  H       41.083    -206.713    -315.865
  H       36.610    -200.374    -316.794
  H       40.055    -206.550    -318.753
  H       38.670    -208.509    -318.035
  H       40.387    -208.863    -318.095
  P       43.482    -207.290    -316.682
  C       43.435    -209.532    -315.379
  O       43.022    -208.816    -316.527
  O       43.278    -206.668    -315.220
  O       44.865    -207.065    -317.197
  H       44.124    -206.655    -314.738
  H       43.338    -208.923    -314.476
  H       44.475    -209.850    -315.500
  H       42.802    -210.418    -315.275
  H       37.244    -209.808    -312.916
  H       36.688    -210.386    -314.469
  H       37.260    -208.743    -314.301

 3  4  5  6  7  8  9  10  11  12  23  26  30  31  33  0
 6-311+G(2d,p)
 ****
 35  36  37  38 0
 6-311+G(2d,p)
 ****
 1  2  13  14  15  16  17  18  19  20  21  22  24  25  27  28  29 0
 3-21G
 ****
 32  34  39  40  41  42  43  44  45  46  47  48  49 0
 3-21G
 ****


