%nproc=1
%NoSave
%Mem=1900MB
#P OB98/GEN NMR

erre ene a

0 1
  C     -605.704     226.214    -107.950
  O     -604.760     226.651    -106.962
  P     -603.680     225.658    -106.317
  C     -601.648     226.899    -107.299
  O     -602.362     225.671    -107.229
  C     -600.466     226.818    -108.276
  O     -600.927     226.487    -109.606
  C     -599.670     228.116    -108.416
  O     -598.784     228.272    -107.323
  C     -598.987     227.897    -109.765
  O     -597.824     227.065    -109.621
  C     -600.077     227.156    -110.561
  N     -600.168     229.649    -115.021
  C     -599.257     228.827    -114.467
  N     -599.303     228.202    -113.270
  C     -600.453     228.485    -112.633
  C     -601.471     229.317    -113.070
  C     -601.301     229.925    -114.326
  N     -602.222     230.778    -114.879
  N     -602.483     229.387    -112.130
  C     -602.082     228.600    -111.150
  N     -600.862     228.034    -111.410
  O     -604.204     224.295    -106.012
  O     -603.201     226.396    -104.981
  H     -598.126     226.190    -109.327
  H     -602.910     225.732    -104.320
  H     -598.370     228.636    -115.069
  H     -602.644     228.406    -110.248
  H     -599.651     226.376    -111.198
  H     -598.668     228.835    -110.233
  H     -600.354     228.967    -108.490
  H     -599.815     225.998    -107.952
  H     -601.272     227.136    -106.295
  H     -602.012     231.195    -115.772
  H     -603.048     231.021    -114.350
  H     -602.336     227.687    -107.613
  P     -599.292     228.992    -105.977
  C     -598.876     226.885    -104.575
  O     -599.832     227.839    -105.005
  O     -600.223     230.138    -106.178
  O     -597.942     229.458    -105.264
  H     -598.115     230.260    -104.740
  H     -598.714     226.154    -105.353
  H     -599.262     226.390    -103.681
  H     -597.929     227.375    -104.325
  H     -606.325     227.036    -108.239
  H     -606.312     225.434    -107.542
  H     -605.179     225.845    -108.806

 3  4  5  6  7  8  9  10  11  12  22  25  29  30  31  32 0
 6-311+G(2d,p)
 ****
 33  36  37 0
 6-311+G(2d,p)
 ****
 1  2  13  14  15  16  17  18  19  20  21  23  24  26 0
 3-21G
 ****
 27  28  34  35  38  39  40  41  42  43  44  45  46  47  48 0
 3-21G
 ****


