%nproc=1
%NoSave
%Mem=1900MB
#P OB98/GEN NMR

erre ene a

0 1
  C      745.269    -541.335    -899.215
  O      744.585    -541.859    -898.055
  P      745.167    -543.205    -897.405
  C      746.037    -542.111    -895.215
  O      746.351    -542.804    -896.425
  C      747.148    -542.303    -894.175
  O      747.256    -543.720    -893.785
  C      748.536    -541.889    -894.635
  O      748.747    -540.494    -894.495
  C      749.430    -542.659    -893.685
  O      749.492    -541.953    -892.415
  C      748.661    -543.975    -893.525
  N      752.078    -547.685    -894.075
  C      751.871    -546.805    -893.025
  N      752.698    -546.944    -891.965
  N      750.958    -545.887    -893.015
  C      750.193    -545.872    -894.125
  C      750.296    -546.670    -895.255
  C      751.346    -547.679    -895.255
  O      751.593    -548.478    -896.175
  N      749.358    -546.361    -896.185
  C      748.686    -545.376    -895.635
  N      749.149    -545.033    -894.415
  O      745.928    -543.905    -898.635
  O      744.112    -544.098    -896.835
  H      749.950    -542.554    -891.795
  H      745.932    -544.865    -898.515
  H      752.817    -548.362    -894.045
  H      747.825    -544.888    -896.135
  H      748.721    -544.379    -892.485
  H      750.451    -542.744    -894.065
  H      753.405    -547.673    -891.865
  H      748.706    -542.237    -895.685
  H      752.542    -546.342    -891.155
  H      746.863    -541.728    -893.285
  H      745.086    -542.447    -894.815
  H      745.895    -541.050    -895.435
  P      748.297    -539.535    -895.695
  C      747.367    -537.571    -894.265
  O      747.082    -538.641    -895.135
  O      747.607    -540.546    -896.725
  O      749.419    -538.777    -896.335
  H      747.744    -540.237    -897.655
  H      746.441    -536.981    -894.125
  H      748.149    -536.905    -894.685
  H      747.702    -537.975    -893.285
  H      744.780    -540.442    -899.545
  H      745.249    -542.062    -900.000
  H      746.284    -541.113    -898.961

 3  4  5  6  7  8  9  10  11  12  23  26  30  31 0
 6-311+G(2d,p)
 ****
 33  35  36  37  38 0
 6-311+G(2d,p)
 ****
 1  2  13  14  15  16  17  18  19  20  21  22  24  25 0
 3-21G
 ****
 27  28  29  32  34  39  40  41  42  43  44  45  46  47  48  49 0
 3-21G
 ****


