%nproc=1
%NoSave
%Mem=1900MB
#P OB98/GEN NMR

erre ene a

0 1
  C     -143.996     259.531     349.986
  O     -144.657     260.754     349.716
  P     -144.815     261.198     348.185
  C     -143.392     263.304     347.595
  O     -143.438     261.891     347.746
  C     -143.570     263.975     348.958
  O     -142.730     263.333     349.946
  C     -143.164     265.441     348.972
  O     -144.172     266.265     348.410
  C     -142.940     265.688     350.457
  O     -144.179     265.962     351.126
  C     -142.361     264.331     350.921
  N     -140.921     264.380     351.128
  C     -140.499     264.696     352.418
  O     -141.283     264.946     353.334
  N     -139.149     264.753     352.611
  C     -138.192     264.588     351.649
  O     -136.994     264.707     351.868
  C     -138.696     264.286     350.295
  C     -140.013     264.205     350.102
  O     -145.851     262.416     348.242
  O     -145.279     260.115     347.270
  H     -143.960     266.113     352.069
  H     -146.426     262.398     347.452
  H     -138.823     264.956     353.540
  H     -137.962     264.150     349.510
  H     -140.405     263.997     349.112
  H     -142.830     264.022     351.861
  H     -142.280     266.543     350.640
  H     -142.213     265.574     348.440
  H     -144.615     263.859     349.270
  H     -144.195     263.617     346.922
  H     -142.435     263.583     347.148
  P     -143.710     267.681     347.811
  C     -144.940     269.249     349.500
  O     -143.726     268.685     349.064
  O     -144.998     268.074     346.945
  O     -142.441     267.601     347.038
  H     -145.821     267.739     347.338
  H     -145.772     268.548     349.393
  H     -145.150     270.154     348.927
  H     -144.842     269.520     350.557
  H     -143.966     259.368     351.043
  H     -142.998     259.573     349.603
  H     -144.525     258.728     349.516

 3  4  5  6  7  8  9  10  11  12  13  23  28  29  30  31  32 0
 6-311+G(2d,p)
 ****
 33  34 0
 6-311+G(2d,p)
 ****
 1  2  14  15  16  17  18  19  20  21  22  24  25  26 0
 3-21G
 ****
 27  35  36  37  38  39  40  41  42  43  44  45 0
 3-21G
 ****


