%nproc=1
%NoSave
%Mem=1900MB
#P OB98/GEN NMR

erre ene a

0 1
  C     -272.348    -893.000    -898.180
  O     -270.910    -893.160    -898.160
  P     -269.979    -891.950    -898.680
  C     -267.775    -892.170    -897.240
  O     -269.031    -891.500    -897.490
  C     -267.800    -892.850    -895.890
  O     -268.836    -893.870    -895.810
  C     -266.519    -893.540    -895.470
  O     -265.526    -892.620    -895.080
  C     -267.000    -894.470    -894.370
  O     -267.061    -893.760    -893.100
  C     -268.400    -894.870    -894.850
  N     -268.486    -896.220    -895.400
  C     -268.846    -897.220    -894.520
  O     -269.067    -897.010    -893.310
  N     -268.929    -898.480    -895.040
  C     -268.618    -898.860    -896.310
  O     -268.694    -900.000    -896.730
  C     -268.135    -897.740    -897.180
  C     -268.071    -896.510    -896.710
  O     -271.034    -890.740    -898.780
  O     -269.304    -892.200    -900.000
  H     -267.431    -894.400    -892.450
  H     -270.729    -890.110    -899.460
  H     -269.235    -899.210    -894.410
  H     -267.863    -897.980    -898.200
  H     -267.732    -895.680    -897.330
  H     -269.124    -894.790    -894.040
  H     -266.329    -895.320    -894.210
  H     -266.162    -894.160    -896.330
  H     -268.101    -892.060    -895.100
  H     -266.982    -891.450    -897.280
  H     -267.634    -892.900    -898.040
  P     -264.395    -892.190    -896.200
  C     -264.213    -889.610    -895.800
  O     -264.756    -890.670    -896.550
  O     -264.909    -893.060    -897.440
  O     -263.012    -892.480    -895.720
  H     -265.901    -893.170    -897.470
  H     -263.204    -889.860    -895.440
  H     -264.876    -889.360    -894.960
  H     -264.150    -888.720    -896.440
  H     -272.811    -893.889    -897.805
  H     -272.673    -892.825    -899.184
  H     -272.623    -892.168    -897.566

 3  4  5  6  7  8  9  10  11  12  13  23  28  29  30  31  32 0
 6-311+G(2d,p)
 ****
 33  34 0
 6-311+G(2d,p)
 ****
 1  2  14  15  16  17  18  19  20  21  22  24  25  26 0
 3-21G
 ****
 27  35  36  37  38  39  40  41  42  43  44  45 0
 3-21G
 ****


