%nproc=1
%NoSave
%Mem=1900MB
#P OB98/GEN NMR

erre ene a

0 1
  C       76.752     -44.002      -7.270
  O       76.662     -42.849      -8.084
  H       76.321     -44.847      -7.812
  H       76.192     -43.852      -6.343
  H       77.798     -44.224      -7.042
  P       77.260     -41.495      -7.468
  C       79.306     -40.982      -9.001
  O       78.834     -41.525      -7.777
  C       80.274     -39.824      -8.732
  O       81.469     -40.355      -8.087
  C       80.742     -39.097     -10.003
  O       81.038     -37.736      -9.649
  C       82.034     -39.833     -10.321
  O       82.802     -39.122     -11.264
  C       82.595     -39.976      -8.909
  N       87.568     -40.686      -7.962
  C       86.796     -39.580      -7.927
  N       85.476     -39.471      -8.179
  C       84.947     -40.670      -8.476
  C       85.607     -41.886      -8.543
  C       86.986     -41.868      -8.274
  N       87.778     -42.992      -8.318
  N       84.729     -42.899      -8.884
  C       83.562     -42.302      -9.018
  N       83.648     -40.957      -8.790
  O       77.176     -41.739      -5.890
  O       76.564     -40.241      -7.878
  H       83.236     -38.347     -10.848
  H       76.357     -41.345      -5.535
  H       87.307     -38.658      -7.662
  H       82.632     -42.790      -9.287
  H       82.982     -39.025      -8.526
  H       81.825     -40.813     -10.760
  H       80.004     -39.112     -10.809
  H       79.813     -39.129      -8.021
  H       78.446     -40.621      -9.575
  H       79.819     -41.760      -9.572
  H       88.761     -42.892      -8.126
  H       87.360     -43.877      -8.565
  P       80.219     -36.547     -10.358
  C       78.587     -36.016      -8.384
  O       78.751     -36.481      -9.715
  O       79.918     -37.169     -11.806
  O       80.941     -35.246     -10.481
  H       79.834     -36.449     -12.459
  H       77.550     -36.040      -8.123
  H       78.951     -35.012      -8.309
  H       79.137     -36.645      -7.716

 6  7  8  9  10  11  12  13  14  15  25  28  32  33  34  35 0
 6-311+G(2d,p)
 ****
 36  37  40 0
 6-311+G(2d,p)
 ****
 1  2  3  4  5  16  17  18  19  20  21  22  23  24 0
 3-21G
 ****
 26  27  29  30  31  38  39 41  42  43  44  45  46  47  48 0
 3-21G
 ****


