%nproc=1
%NoSave
%Mem=1900MB
#P OB98/GEN NMR

erre ene a

0 1
  C     -681.255     112.554     159.638
  O     -681.615     113.876     160.045
  P     -682.908     114.555     159.387
  C     -681.373     115.919     157.806
  O     -682.522     115.072     157.918
  C     -681.477     116.809     156.558
  O     -682.819     117.356     156.488
  C     -680.529     118.018     156.555
  O     -679.230     117.851     155.997
  C     -681.279     118.972     155.620
  O     -680.993     118.647     154.251
  C     -682.747     118.684     155.914
  N     -686.151     122.490     156.317
  C     -685.787     121.717     155.272
  N     -684.870     120.727     155.251
  C     -684.318     120.553     156.459
  C     -684.604     121.265     157.620
  C     -685.564     122.275     157.521
  N     -685.934     123.076     158.583
  N     -683.831     120.803     158.679
  C     -683.091     119.843     158.148
  N     -683.348     119.645     156.826
  O     -683.639     115.540     160.243
  O     -683.844     113.282     159.064
  H     -681.554     119.233     153.705
  H     -684.770     113.521     159.229
  H     -686.289     121.919     154.331
  H     -682.343     119.275     158.697
  H     -683.363     118.684     155.006
  H     -680.974     120.016     155.766
  H     -680.455     118.454     157.549
  H     -681.308     116.196     155.657
  H     -680.479     115.297     157.746
  H     -686.606     123.814     158.411
  H     -685.470     122.965     159.467
  H     -681.306     116.490     158.731
  P     -677.932     117.723     156.937
  C     -677.825     120.340     157.105
  O     -677.865     119.092     157.774
  O     -676.663     117.371     156.220
  O     -678.396     116.656     158.026
  H     -679.093     116.967     158.636
  H     -678.008     121.132     157.831
  H     -678.597     120.392     156.329
  H     -676.838     120.481     156.660
  H     -680.376     112.245     160.165
  H     -681.062     112.545     158.586
  H     -682.058     111.882     159.859

 3  4  5  6  7  8  9  10  11  12  22  25  29  30  31  32 0
 6-311+G(2d,p)
 ****
 33  36  37 0
 6-311+G(2d,p)
 ****
 1  2  13  14  15  16  17  18  19  20  21  23  24  26 0
 3-21G
 ****
 27  28  34  35  38  39  40  41  42  43  44  45  46  47  48 0
 3-21G
 ****


