%nproc=1
%NoSave
%Mem=1900MB
#P OB98/GEN NMR

erre ene a

0 1
  C       11.682    -667.631     256.600
  O       10.732    -666.937     255.819
  H       11.365    -668.666     256.713
  H       11.759    -667.179     257.595
  H       12.664    -667.608     256.111
  P       10.965    -665.357     255.634
  C       10.061    -663.691     253.833
  O       10.315    -665.046     254.196
  C        9.691    -663.603     252.355
  O       10.696    -664.235     251.539
  C        8.378    -664.309     251.984
  O        7.226    -663.560     252.348
  C        8.553    -664.398     250.482
  O        8.341    -663.113     249.883
  C       10.040    -664.827     250.384
  N       10.220    -666.279     250.366
  C        9.859    -666.945     249.186
  O        9.413    -666.315     248.225
  N        9.989    -668.320     249.137
  C       10.454    -668.965     250.165
  N       10.551    -670.321     250.056
  C       10.856    -668.299     251.419
  C       10.724    -666.974     251.461
  O       12.542    -665.249     255.331
  O       10.491    -664.488     256.746
  H        8.247    -663.267     248.921
  H       12.762    -664.323     255.062
  H       11.221    -668.889     252.248
  H       11.006    -666.422     252.340
  H       10.516    -664.402     249.488
  H        7.854    -665.099     250.007
  H        8.329    -665.316     252.406
  H        9.665    -662.540     252.081
  H       10.207    -670.751     249.210
  H       10.972    -663.102     254.037
  H       10.759    -670.921     250.842
  H        9.242    -663.284     254.439
  P        5.862    -664.381     252.559
  C        3.537    -663.791     253.575
  O        4.916    -663.477     253.486
  O        6.299    -665.568     253.535
  O        5.226    -664.895     251.296
  H        5.797    -666.389     253.349
  H        3.054    -663.095     254.229
  H        3.421    -664.782     253.960
  H        3.094    -663.732     252.603

 6  7  8  9  10  11  12  13  14  15  16  26  30  31  32  33  35 0
 6-311+G(2d,p)
 ****
 37  38 0
 6-311+G(2d,p)
 ****
 1  2  3  4  5  17  18  19  20  21  22  23  24  25 0
 3-21G
 ****
 27  28  29  34  36  39  40  41  42  43  44  45  46 0
 3-21G
 ****


