%nproc=1
%NoSave
%Mem=1900MB
#P OB98/GEN NMR

erre ene a

0 1
  C      -42.696      52.261     150.812
  O      -41.871      53.052     149.974
  P      -40.701      53.917     150.647
  C      -40.625      56.226     151.899
  O      -41.396      55.231     151.250
  C      -41.204      57.615     151.614
  O      -40.929      57.966     150.229
  C      -42.720      57.727     151.825
  O      -42.982      59.044     152.327
  C      -43.267      57.575     150.416
  O      -44.569      58.120     150.274
  C      -42.186      58.305     149.610
  N      -42.174      57.941     148.193
  C      -43.353      58.095     147.472
  O      -44.409      58.494     147.962
  N      -43.293      57.737     146.149
  C      -42.215      57.195     145.511
  O      -42.223      56.879     144.329
  C      -41.012      57.013     146.334
  C      -41.044      57.397     147.611
  O      -39.923      54.443     149.354
  O      -39.868      53.148     151.617
  H      -40.514      54.637     148.608
  H      -44.812      58.080     149.331
  H      -44.128      57.874     145.599
  H      -40.142      56.572     145.867
  H      -40.168      57.271     148.239
  H      -42.311      59.389     149.710
  H      -43.312      56.512     150.156
  H      -43.104      56.979     152.524
  H      -40.675      58.343     152.244
  H      -39.596      56.187     151.529
  H      -40.606      56.024     152.973
  P      -43.717      59.179     153.754
  C      -46.208      59.170     154.555
  O      -45.289      59.016     153.499
  O      -43.557      60.756     154.005
  O      -43.124      58.354     154.848
  H      -43.814      61.289     153.236
  H      -47.202      59.358     154.134
  H      -45.941      60.011     155.199
  H      -46.245      58.253     155.147
  H      -43.422      51.749     150.216
  H      -43.195      52.891     151.519
  H      -42.094      51.546     151.333

 3  4  5  6  7  8  9  10  11  12  13  24  28  29  30  31  32 0
 6-311+G(2d,p)
 ****
 33  34 0
 6-311+G(2d,p)
 ****
 1  2  14  15  16  17  18  19  20  21  22  23  25  26  27 0
 3-21G
 ****
 35  36  37  38  39  40  41  42  43  44  45 0
 3-21G
 ****


