%nproc=1
%NoSave
%Mem=1900MB
#P OB98/GEN NMR

erre ene a

0 1
  C     2041.590    -522.695    -445.508
  O     2040.680    -522.529    -446.576
  H     2041.069    -523.215    -444.705
  H     2041.917    -521.715    -445.134
  H     2042.435    -523.281    -445.824
  P     2041.188    -521.714    -447.859
  C     2041.307    -523.969    -449.084
  O     2042.027    -522.803    -448.707
  C     2042.284    -525.139    -449.299
  O     2042.982    -524.931    -450.570
  C     2043.356    -525.281    -448.227
  O     2043.644    -526.688    -448.020
  C     2044.581    -524.649    -448.827
  O     2045.781    -525.092    -448.233
  C     2044.377    -524.968    -450.293
  N     2048.190    -524.632    -453.687
  C     2047.569    -525.695    -453.102
  N     2046.555    -525.695    -452.243
  C     2046.129    -524.445    -452.012
  C     2046.639    -523.263    -452.500
  C     2047.756    -523.364    -453.374
  N     2048.424    -522.306    -453.899
  N     2045.973    -522.149    -451.967
  C     2045.061    -522.694    -451.168
  N     2045.130    -524.058    -451.147
  O     2041.934    -520.449    -447.567
  O     2039.861    -521.551    -448.725
  H     2046.494    -524.500    -448.542
  H     2039.371    -522.377    -448.772
  H     2047.948    -526.665    -453.406
  H     2044.325    -522.110    -450.607
  H     2044.760    -526.001    -450.536
  H     2044.520    -523.543    -448.664
  H     2043.049    -524.827    -447.259
  H     2041.697    -526.072    -449.418
  H     2040.722    -523.825    -449.965
  H     2049.195    -522.490    -454.526
  H     2048.107    -521.363    -453.693
  H     2040.624    -524.243    -448.247
  P     2042.689    -527.541    -447.020
  C     2042.269    -529.547    -448.609
  O     2041.666    -528.447    -447.919
  O     2042.019    -526.768    -445.956
  O     2043.684    -528.667    -446.407
  H     2043.526    -528.694    -445.467
  H     2041.521    -530.073    -449.164
  H     2042.718    -530.210    -447.899
  H     2043.019    -529.180    -449.279

 6  7  8  9  10  11  12  13  14  15  25  28  32  33  34  35 0
 6-311+G(2d,p)
 ****
 36  39  40 0
 6-311+G(2d,p)
 ****
 1  2  3  4  5  16  17  18  19  20  21  22  23  24 0
 3-21G
 ****
 26  27  29  30  31  37  38  41  42  43  44  45  46  47 0
 3-21G
 ****
 48 0
 3-21G
 ****


