%nproc=1
%NoSave
%Mem=1900MB
#P OB98/GEN NMR

erre ene a

0 1
  C       68.839     571.176     -29.188
  O       67.464     571.086     -28.890
  H       69.120     572.232     -29.253
  H       69.037     570.699     -30.153
  H       69.449     570.701     -28.415
  P       66.890     569.717     -28.298
  C       67.153     567.241     -28.987
  O       67.017     568.585     -29.432
  C       66.963     566.243     -30.131
  O       67.952     566.486     -31.158
  C       67.146     564.796     -29.678
  O       65.965     564.186     -29.166
  C       67.592     564.115     -30.972
  O       66.467     563.670     -31.750
  C       68.348     565.227     -31.713
  N       72.509     562.735     -33.334
  C       71.179     562.429     -33.547
  N       70.936     561.305     -34.250
  N       70.193     563.159     -33.095
  C       70.590     564.203     -32.324
  C       71.877     564.589     -32.029
  C       72.968     563.821     -32.588
  O       74.161     564.057     -32.443
  N       71.893     565.675     -31.181
  C       70.619     565.882     -30.905
  N       69.793     565.067     -31.640
  O       65.307     569.970     -28.237
  O       67.410     569.335     -26.944
  H       65.944     563.047     -31.200
  H       64.925     569.475     -27.491
  H       73.229     562.155     -33.722
  H       70.242     566.638     -30.220
  H       68.085     565.251     -32.778
  H       68.200     563.230     -30.759
  H       71.660     560.659     -34.546
  H       67.959     564.710     -28.950
  H       69.984     560.942     -34.268
  H       65.978     566.405     -30.589
  H       66.390     567.091     -28.224
  H       68.127     567.099     -28.510
  P       66.054     562.872     -28.263
  C       67.102     560.519     -28.767
  O       66.340     561.625     -29.208
  O       64.528     562.651     -27.806
  O       66.980     562.960     -27.091
  H       64.389     563.002     -26.908
  H       67.172     559.798     -29.554
  H       66.627     560.075     -27.917
  H       68.084     560.847     -28.496

 6  7  8  9  10  11  12  13  14  15  26  29  33  34 0
 6-311+G(2d,p)
 ****
 36  38  39  40  41 0
 6-311+G(2d,p)
 ****
 1  2  3  4  5  16  17  18  19  20  21  22  23  24  25 0
 3-21G
 ****
 27  28  30  31  32  35  37  42  43  44  45  46  47 0
 3-21G
 ****
 48  49 0
 3-21G
 ****


