%nproc=1
%NoSave
%Mem=1900MB
#P OB98/GEN NMR

erre ene a

0 1
  C      133.437    -213.920     -93.080
  O      134.738    -213.877     -92.494
  P      135.779    -215.085     -92.485
  C      137.775    -214.068     -93.865
  O      137.258    -214.487     -92.610
  C      139.028    -213.196     -93.685
  O      138.829    -212.323     -92.531
  C      140.288    -214.027     -93.409
  O      141.441    -213.564     -94.107
  C      140.358    -214.045     -91.891
  O      141.644    -214.368     -91.387
  C      139.820    -212.663     -91.531
  N      140.637    -212.960     -86.498
  C      141.495    -213.247     -87.542
  N      142.730    -213.680     -87.212
  N      141.167    -213.128     -88.802
  C      139.881    -212.757     -88.997
  C      138.930    -212.467     -88.043
  C      139.319    -212.549     -86.653
  O      138.602    -212.289     -85.687
  N      137.733    -212.117     -88.623
  C      137.955    -212.220     -89.919
  N      139.248    -212.598     -90.195
  O      135.445    -216.242     -93.367
  O      135.736    -215.613     -90.959
  H      142.213    -213.579     -91.482
  H      135.905    -216.578     -90.996
  H      140.949    -213.047     -85.546
  H      137.223    -212.019     -90.694
  H      140.597    -211.898     -91.560
  H      139.672    -214.830     -91.539
  H      143.006    -213.910     -86.269
  H      140.165    -215.055     -93.776
  H      143.272    -214.095     -87.970
  H      139.148    -212.565     -94.574
  H      136.978    -213.482     -94.338
  H      137.979    -214.927     -94.506
  P      142.058    -214.096     -95.481
  C      140.209    -213.818     -97.239
  O      141.397    -213.279     -96.688
  O      141.450    -215.564     -95.669
  O      143.553    -214.148     -95.514
  H      142.170    -216.222     -95.680
  H      140.016    -213.333     -98.200
  H      139.370    -213.625     -96.569
  H      140.315    -214.895     -97.401
  H      132.953    -212.976     -92.943
  H      132.860    -214.689     -92.610
  H      133.524    -214.128     -94.126

 3  4  5  6  7  8  9  10  11  12  23  26  30  31 0
 6-311+G(2d,p)
 ****
 33  35  36  37  38 0
 6-311+G(2d,p)
 ****
 1  2  13  14  15  16  17  18  19  20  21  22  24  25 0
 3-21G
 ****
 27  28  29  32  34  39  40  41  42  43  44  45  46  47  48  49 0
 3-21G
 ****


