%nproc=1
%NoSave
%Mem=1900MB
#P OB98/GEN NMR

erre ene a

0 1
  C      252.861     -62.800      68.799
  O      252.895     -62.259      67.497
  H      253.883     -63.042      69.103
  H      252.269     -63.719      68.798
  H      252.439     -62.093      69.517
  P      251.641     -61.410      66.984
  C      252.979     -59.259      66.481
  O      252.175     -60.305      65.949
  C      253.814     -58.580      65.398
  O      255.015     -59.345      65.159
  C      253.076     -58.486      64.059
  O      252.254     -57.341      63.920
  C      254.233     -58.457      63.063
  O      254.689     -57.115      62.833
  C      255.322     -59.282      63.757
  N      258.412     -63.130      62.421
  C      258.744     -61.840      62.792
  N      260.060     -61.536      62.766
  N      257.859     -60.939      63.137
  C      256.581     -61.361      63.019
  C      256.130     -62.607      62.642
  C      257.117     -63.620      62.334
  O      256.875     -64.777      62.016
  N      254.756     -62.654      62.598
  C      254.386     -61.417      62.860
  N      255.453     -60.617      63.203
  O      251.245     -60.521      68.261
  O      250.465     -62.213      66.517
  H      254.777     -56.672      63.700
  H      250.285     -60.360      68.261
  H      259.138     -63.785      62.195
  H      253.363     -61.059      62.865
  H      256.304     -58.804      63.668
  H      253.922     -58.854      62.093
  H      260.772     -62.161      62.427
  H      252.493     -59.393      63.876
  H      260.328     -60.553      62.846
  H      254.129     -57.590      65.751
  H      253.633     -59.720      67.224
  H      252.355     -58.527      67.001
  P      250.830     -57.436      63.202
  C      249.806     -55.278      64.291
  O      250.203     -55.972      63.129
  O      249.921     -58.172      64.295
  O      250.818     -58.152      61.891
  H      249.845     -59.124      64.094
  H      249.415     -54.320      64.018
  H      250.651     -55.148      64.935
  H      249.052     -55.839      64.801

 6  7  8  9  10  11  12  13  14  15  26  29  33  34 0
 6-311+G(2d,p)
 ****
 36  38  39  40  41 0
 6-311+G(2d,p)
 ****
 1  2  3  4  5  16  17  18  19  20  21  22  23  24  25 0
 3-21G
 ****
 27  28  30  31  32  35  37  42  43  44  45  46  47 0
 3-21G
 ****
 48  49 0
 3-21G
 ****


