%nproc=1
%NoSave
%Mem=1900MB
#P OB98/GEN NMR

erre ene a

0 1
  C       60.435     -19.562     -36.094
  O       60.514     -20.447     -34.989
  P       59.815     -21.893     -35.035
  C       58.679     -21.479     -32.751
  O       58.497     -21.744     -34.135
  C       57.331     -21.187     -32.098
  O       56.807     -19.944     -32.605
  C       56.257     -22.232     -32.370
  O       56.463     -23.394     -31.582
  C       54.996     -21.438     -32.054
  O       54.783     -21.383     -30.635
  C       55.363     -20.035     -32.582
  N       54.798     -19.759     -33.898
  C       53.745     -18.841     -33.944
  O       53.334     -18.295     -32.921
  N       53.196     -18.530     -35.164
  C       53.642     -19.102     -36.239
  N       53.107     -18.705     -37.426
  C       54.712     -20.116     -36.228
  C       55.241     -20.390     -35.038
  O       60.702     -23.029     -34.656
  O       59.217     -22.003     -36.510
  H       55.618     -21.069     -30.237
  H       59.854     -22.375     -37.168
  H       55.040     -20.575     -37.150
  H       56.045     -21.108     -34.948
  H       55.021     -19.265     -31.882
  H       54.092     -21.853     -32.512
  H       56.258     -22.514     -33.430
  H       57.491     -21.076     -31.017
  H       52.507     -17.889     -37.403
  H       59.327     -20.602     -32.646
  H       53.582     -18.878     -38.303
  H       59.168     -22.337     -32.281
  P       55.684     -24.728     -32.010
  C       54.697     -25.121     -29.645
  O       54.434     -24.846     -31.009
  O       56.675     -25.895     -31.553
  O       55.349     -24.806     -33.462
  H       57.169     -26.241     -32.319
  H       53.785     -24.935     -29.072
  H       55.490     -24.472     -29.264
  H       54.980     -26.169     -29.524
  H       60.961     -18.659     -35.866
  H       59.409     -19.336     -36.297
  H       60.875     -20.024     -36.953

 3  4  5  6  7  8  9  10  11  12  13  23  27  28  29  30  32 0
 6-311+G(2d,p)
 ****
 34  35 0
 6-311+G(2d,p)
 ****
 1  2  14  15  16  17  18  19  20  21  22  24  25  26 0
 3-21G
 ****
 31  33  36  37  38  39  40  41  42  43  44  45  46 0
 3-21G
 ****


