%nproc=1
%NoSave
%Mem=1900MB
#P OB98/GEN NMR

erre ene a

0 1
  C      571.079     336.950     238.472
  O      571.612     337.938     239.326
  H      571.906     336.347     238.078
  H      570.553     337.411     237.633
  H      570.402     336.292     239.023
  P      570.614     339.005     239.989
  C      570.409     340.061     237.639
  O      569.714     339.597     238.798
  C      569.419     340.293     236.490
  O      568.927     338.991     236.066
  C      568.211     341.148     236.912
  O      567.997     342.267     236.055
  C      567.087     340.127     237.042
  O      565.786     340.658     236.851
  C      567.483     339.044     236.039
  N      566.922     337.723     236.339
  C      566.088     337.152     235.383
  O      565.805     337.661     234.295
  N      565.569     335.928     235.709
  C      565.780     335.242     236.865
  O      565.291     334.144     237.097
  C      566.659     335.903     237.848
  C      567.180     337.098     237.543
  O      571.252     340.034     240.863
  O      569.570     338.105     240.811
  H      565.875     341.501     236.370
  H      569.795     338.129     241.759
  H      564.969     335.503     235.017
  H      566.841     335.393     238.780
  H      567.833     337.616     238.238
  H      567.178     339.315     235.026
  H      567.117     339.709     238.055
  H      568.384     341.611     237.889
  H      569.956     340.731     235.645
  H      571.147     339.300     237.368
  H      570.926     340.996     237.876
  P      568.534     343.742     236.337
  C      566.274     344.809     237.148
  O      567.607     344.410     237.453
  O      568.835     344.565     235.127
  O      569.936     343.489     237.106
  H      570.535     344.220     236.852
  H      565.820     345.232     238.020
  H      565.711     343.957     236.830
  H      566.290     345.538     236.365

 6  7  8  9  10  11  12  13  14  15  16  26  31  32  33  34  35 0
 6-311+G(2d,p)
 ****
 36  37 0
 6-311+G(2d,p)
 ****
 1  2  3  4  5  17  18  19  20  21  22  23  24  25 0
 3-21G
 ****
 27  28  29  30  38  39  40  41  42  43  44  45 0
 3-21G
 ****


