%nproc=1
%NoSave
%Mem=1900MB
#P OB98/GEN NMR

erre ene a

0 1
  C      -42.843     112.335    -112.115
  O      -42.231     111.732    -113.258
  P      -42.114     112.639    -114.575
  C      -39.530     112.899    -114.544
  O      -40.795     113.540    -114.446
  C      -38.584     113.734    -115.407
  O      -38.177     114.946    -114.735
  C      -37.287     113.014    -115.754
  O      -37.501     112.032    -116.754
  C      -36.417     114.187    -116.193
  O      -36.735     114.574    -117.540
  C      -36.857     115.293    -115.220
  N      -31.964     115.210    -113.727
  C      -32.545     115.006    -114.929
  N      -33.856     115.043    -115.244
  C      -34.597     115.339    -114.164
  C      -34.146     115.577    -112.876
  C      -32.758     115.500    -112.670
  N      -32.168     115.694    -111.442
  N      -35.204     115.846    -112.032
  C      -36.275     115.748    -112.792
  N      -35.959     115.455    -114.091
  O      -43.310     113.687    -114.410
  O      -42.230     111.865    -115.847
  H      -36.664     113.772    -118.097
  H      -44.020     113.486    -115.046
  H      -31.867     114.780    -115.747
  H      -37.294     115.879    -112.450
  H      -36.936     116.269    -115.710
  H      -35.347     113.962    -116.160
  H      -36.862     112.546    -114.858
  H      -39.115     114.008    -116.328
  H      -39.643     111.903    -114.978
  H      -31.175     115.543    -111.364
  H      -32.757     115.823    -110.631
  H      -39.126     112.760    -113.537
  P      -37.269     110.497    -116.355
  C      -39.731     109.865    -115.988
  O      -38.496     110.172    -115.368
  O      -36.032     110.609    -115.350
  O      -37.097     109.566    -117.505
  H      -36.152     111.332    -114.709
  H      -40.462     109.632    -115.211
  H      -39.620     108.997    -116.644
  H      -40.086     110.725    -116.562
  H      -42.861     111.633    -111.308
  H      -43.844     112.625    -112.358
  H      -42.282     113.199    -111.824

 3  4  5  6  7  8  9  10  11  12  22  25  29  30  31  32 0
 6-311+G(2d,p)
 ****
 33  36  37 0
 6-311+G(2d,p)
 ****
 1  2  13  14  15  16  17  18  19  20  21  23  24  26 0
 3-21G
 ****
 27  28  34  35  38  39  40  41  42  43  44  45  46  47  48 0
 3-21G
 ****


