%nproc=1
%NoSave
%Mem=1900MB
#P OB98/GEN NMR

erre ene a

0 1
  C      769.153    -217.796     -67.313
  O      768.196    -217.586     -66.297
  H      768.953    -217.093     -68.128
  H      769.062    -218.812     -67.697
  H      770.168    -217.628     -66.948
  P      768.498    -218.145     -64.828
  C      767.574    -216.263     -63.322
  O      767.369    -217.570     -63.840
  C      766.419    -215.817     -62.419
  O      765.211    -215.659     -63.192
  C      766.103    -216.853     -61.338
  O      766.901    -216.780     -60.168
  C      764.642    -216.530     -61.019
  O      764.550    -215.476     -60.045
  C      764.100    -216.059     -62.375
  N      760.313    -217.152     -65.630
  C      760.728    -215.913     -65.155
  N      760.001    -214.848     -65.561
  N      761.743    -215.758     -64.355
  C      762.312    -216.925     -63.958
  C      761.979    -218.203     -64.350
  C      760.887    -218.362     -65.284
  O      760.476    -219.432     -65.732
  N      762.788    -219.141     -63.742
  C      763.550    -218.433     -62.934
  N      763.319    -217.079     -63.049
  O      769.802    -217.322     -64.375
  O      768.738    -219.621     -64.741
  H      763.622    -215.193     -59.984
  H      770.306    -217.836     -63.719
  H      759.547    -217.208     -66.269
  H      764.298    -218.844     -62.268
  H      763.455    -215.180     -62.264
  H      764.118    -217.394     -60.604
  H      759.147    -214.932     -66.084
  H      766.145    -217.867     -61.753
  H      760.104    -213.975     -65.034
  H      766.659    -214.840     -61.984
  H      767.656    -215.593     -64.180
  H      768.522    -216.213     -62.785
  P      767.226    -218.109     -59.338
  C      768.795    -216.765     -57.759
  O      767.699    -217.646     -57.877
  O      768.575    -218.642     -60.027
  O      766.151    -219.142     -59.357
  H      768.363    -219.323     -60.691
  H      768.977    -216.559     -56.725
  H      768.575    -215.852     -58.271
  H      769.664    -217.216     -58.191

 6  7  8  9  10  11  12  13  14  15  26  29  33  34 0
 6-311+G(2d,p)
 ****
 36  38  39  40  41 0
 6-311+G(2d,p)
 ****
 1  2  3  4  5  16  17  18  19  20  21  22  23  24  25 0
 3-21G
 ****
 27  28  30  31  32  35  37  42  43  44  45  46  47 0
 3-21G
 ****
 48  49 0
 3-21G
 ****


