%nproc=1
%NoSave
%Mem=1900MB
#P OB98/GEN NMR

erre ene a

0 1
  C       27.092    -114.699    -205.009
  O       25.988    -114.545    -204.141
  H       26.908    -115.557    -205.658
  H       28.002    -114.887    -204.432
  H       27.224    -113.811    -205.632
  P       25.955    -113.291    -203.141
  C       26.435    -114.682    -201.033
  O       26.907    -113.664    -201.902
  C       27.159    -114.622    -199.690
  O       28.570    -114.879    -199.912
  C       27.032    -113.268    -198.980
  O       26.917    -113.500    -197.579
  C       28.358    -112.589    -199.279
  O       28.708    -111.630    -198.282
  C       29.314    -113.780    -199.343
  N       34.116    -115.083    -200.215
  C       33.177    -115.647    -199.379
  N       33.580    -116.709    -198.639
  N       31.949    -115.216    -199.268
  C       31.678    -114.160    -200.073
  C       32.520    -113.508    -200.941
  C       33.885    -113.990    -201.047
  O       34.760    -113.520    -201.758
  N       31.881    -112.463    -201.563
  C       30.659    -112.482    -201.066
  N       30.488    -113.484    -200.151
  O       24.592    -112.815    -202.752
  O       26.781    -112.161    -203.913
  H       29.552    -111.214    -198.567
  H       26.179    -111.524    -204.340
  H       35.049    -115.450    -200.253
  H       29.864    -111.791    -201.327
  H       29.674    -114.079    -198.350
  H       28.301    -112.076    -200.246
  H       34.506    -117.107    -198.687
  H       26.178    -112.683    -199.336
  H       32.901    -117.155    -198.036
  H       26.786    -115.432    -199.055
  H       26.619    -115.653    -201.509
  H       25.356    -114.564    -200.883
  P       25.487    -113.310    -196.878
  C       25.743    -110.959    -195.848
  O       25.135    -111.743    -196.872
  O       25.306    -114.009    -195.573
  O       24.474    -113.890    -197.984
  H       23.690    -114.258    -197.533
  H       25.434    -109.940    -195.948
  H       26.808    -111.019    -195.937
  H       25.444    -111.330    -194.890

 6  7  8  9  10  11  12  13  14  15  26  29  33  34 0
 6-311+G(2d,p)
 ****
 36  38  39  40  41 0
 6-311+G(2d,p)
 ****
 1  2  3  4  5  16  17  18  19  20  21  22  23  24  25 0
 3-21G
 ****
 27  28  30  31  32  35  37  42  43  44  45  46  47 0
 3-21G
 ****
 48  49 0
 3-21G
 ****


