%nproc=1
%NoSave
%Mem=1900MB
#P OB98/GEN NMR

erre ene a

0 1
  C     -260.941      72.325    -220.322
  O     -260.519      73.607    -220.745
  H     -261.806      72.439    -219.664
  H     -260.147      71.819    -219.770
  H     -261.238      71.722    -221.186
  P     -259.212      73.718    -221.661
  C     -257.700      74.458    -219.694
  O     -258.260      74.803    -220.954
  C     -256.603      75.451    -219.304
  O     -255.431      75.240    -220.118
  C     -256.990      76.914    -219.499
  O     -257.870      77.336    -218.479
  C     -255.620      77.565    -219.492
  O     -255.120      77.700    -218.151
  C     -254.785      76.527    -220.281
  N     -254.634      76.854    -221.696
  C     -253.979      78.054    -221.991
  O     -253.571      78.778    -221.079
  N     -253.817      78.410    -223.307
  C     -254.232      77.620    -224.253
  N     -254.035      78.027    -225.534
  C     -254.895      76.329    -223.987
  C     -255.077      76.020    -222.705
  O     -259.444      73.955    -223.121
  O     -258.442      72.337    -221.402
  H     -255.325      76.855    -217.701
  H     -258.682      71.682    -222.081
  H     -255.219      75.699    -224.802
  H     -255.559      75.085    -222.420
  H     -253.779      76.435    -219.850
  H     -255.629      78.565    -219.930
  H     -257.438      77.059    -220.488
  H     -256.323      75.253    -218.261
  H     -253.559      78.910    -225.665
  H     -257.278      73.453    -219.787
  H     -254.168      77.428    -226.336
  H     -258.474      74.434    -218.919
  P     -259.336      77.902    -218.810
  C     -259.007      80.226    -217.760
  O     -259.660      78.967    -217.656
  O     -260.380      76.862    -219.020
  O     -259.101      78.832    -220.088
  H     -258.998      78.277    -220.903
  H     -259.299      80.848    -216.940
  H     -259.283      80.696    -218.681
  H     -257.947      80.081    -217.738

 6  7  8  9  10  11  12  13  14  15  16  26  30  31  32  33  35 0
 6-311+G(2d,p)
 ****
 37  38 0
 6-311+G(2d,p)
 ****
 1  2  3  4  5  17  18  19  20  21  22  23  24  25 0
 3-21G
 ****
 27  28  29  34  36  39  40  41  42  43  44  45  46 0
 3-21G
 ****


