%nproc=1
%NoSave
%Mem=1900MB
#P OB98/GEN NMR

erre ene a

0 1
  C     -831.809     932.039    -691.546
  O     -833.017     932.470    -692.151
  P     -833.593     933.924    -691.869
  C     -835.475     933.301    -693.497
  O     -835.153     933.868    -692.236
  C     -836.989     933.049    -693.594
  O     -837.743     934.263    -693.289
  C     -837.463     932.653    -694.975
  O     -837.028     931.390    -695.492
  C     -838.975     932.871    -694.850
  O     -839.595     931.758    -694.217
  C     -839.035     934.130    -693.951
  N     -839.375     935.323    -694.716
  C     -840.694     935.410    -695.147
  O     -841.533     934.537    -694.924
  N     -841.015     936.502    -695.886
  C     -840.150     937.508    -696.279
  O     -840.491     938.442    -696.968
  C     -838.766     937.367    -695.779
  C     -838.432     936.304    -695.043
  O     -832.845     935.067    -692.506
  O     -833.639     934.004    -690.265
  H     -839.391     930.954    -694.757
  H     -834.194     933.326    -689.843
  H     -841.960     936.568    -696.225
  H     -838.062     938.138    -696.052
  H     -837.428     936.179    -694.665
  H     -839.765     933.994    -693.151
  H     -839.446     932.983    -695.834
  H     -837.094     933.398    -695.706
  H     -837.265     932.308    -692.841
  H     -834.956     932.331    -693.597
  H     -835.126     933.961    -694.304
  P     -836.960     931.059    -697.053
  C     -835.052     929.373    -696.558
  O     -836.281     929.619    -697.222
  O     -836.494     932.165    -697.946
  O     -838.498     930.744    -697.385
  H     -838.691     930.986    -698.301
  H     -834.713     928.375    -696.837
  H     -835.208     929.417    -695.457
  H     -834.284     930.088    -696.858
  H     -831.591     931.039    -691.858
  H     -831.914     932.066    -690.481
  H     -831.011     932.687    -691.842

 3  4  5  6  7  8  9  10  11  12  13  23  28  29  30  31  32 0
 6-311+G(2d,p)
 ****
 33  34 0
 6-311+G(2d,p)
 ****
 1  2  14  15  16  17  18  19  20  21  22  24  25  26  27 0
 3-21G
 ****
 35  36  37  38  39  40  41  42  43  44  45 0
 3-21G
 ****


