%nproc=1
%NoSave
%Mem=1900MB
#P OB98/GEN NMR

erre ene a

0 1
  C     -141.286    -249.596     176.291
  O     -140.435    -249.481     177.416
  H     -140.744    -249.252     175.406
  H     -142.174    -248.973     176.425
  H     -141.577    -250.639     176.143
  P     -141.042    -249.964     178.822
  C     -142.798    -248.062     178.868
  O     -141.641    -248.626     179.473
  C     -143.573    -247.224     179.880
  O     -144.690    -246.571     179.247
  C     -144.163    -248.020     181.037
  O     -143.179    -248.277     182.027
  C     -145.227    -247.054     181.537
  O     -144.614    -246.036     182.354
  C     -145.753    -246.429     180.230
  N     -150.880    -246.525     180.464
  C     -149.955    -245.928     181.248
  N     -148.610    -245.982     181.151
  C     -148.237    -246.747     180.114
  C     -149.064    -247.417     179.226
  C     -150.449    -247.276     179.423
  N     -151.389    -247.878     178.613
  N     -148.321    -248.106     178.288
  C     -147.070    -247.811     178.573
  N     -146.963    -247.022     179.692
  O     -140.126    -250.765     179.680
  O     -142.363    -250.729     178.337
  H     -145.319    -245.418     182.629
  H     -142.777    -250.258     177.593
  H     -150.350    -245.326     182.063
  H     -146.209    -248.129     177.995
  H     -145.953    -245.359     180.344
  H     -145.980    -247.547     182.155
  H     -144.649    -248.937     180.687
  H     -142.902    -246.437     180.249
  H     -143.442    -248.856     178.467
  H     -152.346    -247.866     178.925
  H     -151.064    -248.535     177.918
  H     -142.463    -247.436     178.037
  P     -142.628    -249.764     182.265
  C     -144.568    -250.234     183.885
  O     -143.155    -250.222     183.710
  O     -141.161    -249.934     182.059
  O     -143.479    -250.675     181.264
  H     -142.915    -251.374     180.879
  H     -144.802    -250.553     184.879
  H     -145.009    -250.908     183.181
  H     -144.955    -249.249     183.726

 6  7  8  9  10  11  12  13  14  15  25  28  32  33  34  35 0
 6-311+G(2d,p)
 ****
 36  39  40 0
 6-311+G(2d,p)
 ****
 1  2  3  4  5  16  17  18  19  20  21  22  23  24 0
 3-21G
 ****
 26  27  29  30  31  37  38  41  42  43  44  45  46  47 0
 3-21G
 ****
 48 0
 3-21G
 ****


