%nproc=1
%NoSave
%Mem=1900MB
#P OB98/GEN NMR

erre ene a

0 1
  C       11.929    -193.474    -178.364
  O       12.811    -194.032    -179.320
  H       12.200    -192.428    -178.205
  H       12.016    -194.012    -177.416
  H       10.898    -193.523    -178.727
  P       12.551    -195.563    -179.724
  C       10.908    -195.468    -181.748
  O       12.254    -195.557    -181.302
  C       10.865    -195.341    -183.276
  O       11.709    -194.217    -183.674
  C       11.394    -196.583    -184.012
  O       10.710    -196.689    -185.276
  C       12.844    -196.200    -184.262
  O       13.412    -197.029    -185.250
  C       12.665    -194.729    -184.625
  N       17.431    -194.429    -186.418
  C       16.399    -195.244    -186.729
  N       15.153    -195.256    -186.211
  C       15.015    -194.279    -185.295
  C       15.975    -193.377    -184.872
  C       17.240    -193.479    -185.468
  N       18.303    -192.667    -185.141
  N       15.458    -192.544    -183.892
  C       14.212    -192.935    -183.736
  N       13.899    -193.980    -184.564
  O       11.124    -195.876    -179.072
  O       13.594    -196.532    -179.285
  H       14.368    -196.847    -185.353
  H       11.243    -196.259    -178.181
  H       16.599    -195.989    -187.497
  H       13.497    -192.514    -183.041
  H       12.246    -194.597    -185.631
  H       13.442    -196.314    -183.354
  H       11.268    -197.509    -183.448
  H        9.842    -195.095    -183.590
  H       10.444    -194.591    -181.287
  H       10.364    -196.366    -181.445
  H       19.185    -192.828    -185.599
  H       18.188    -191.977    -184.414
  P        9.799    -197.980    -185.564
  C        7.456    -197.691    -184.455
  O        8.248    -197.573    -185.627
  O        9.888    -198.768    -184.166
  O       10.267    -198.861    -186.679
  H       10.056    -199.715    -184.334
  H        6.454    -197.381    -184.669
  H        7.864    -197.071    -183.685
  H        7.452    -198.710    -184.128

 6  7  8  9  10  11  12  13  14  15  25  28  32  33  34  35 0
 6-311+G(2d,p)
 ****
 36  37  40 0
 6-311+G(2d,p)
 ****
 1  2  3  4  5  16  17  18  19  20  21  22  23  24 0
 3-21G
 ****
 26  27  29  30  31  38  39 41  42  43  44  45  46  47  48 0
 3-21G
 ****


