%nproc=1
%NoSave
%Mem=1900MB
#P OB98/GEN NMR

erre ene a

0 1
  C      183.499    -144.414      12.856
  O      184.333    -143.879      11.820
  P      184.261    -144.382      10.297
  C      183.531    -142.487       8.705
  O      184.624    -143.167       9.319
  C      183.911    -141.939       7.326
  O      182.730    -141.696       6.533
  C      184.661    -140.615       7.348
  O      186.015    -140.799       7.728
  C      184.455    -140.136       5.912
  O      185.406    -140.752       5.024
  C      183.026    -140.629       5.613
  N      182.039    -139.563       5.696
  C      181.716    -138.910       4.503
  O      182.296    -139.204       3.455
  N      180.759    -137.921       4.528
  C      180.230    -137.568       5.655
  N      179.281    -136.590       5.617
  C      180.605    -138.164       6.949
  C      181.505    -139.147       6.896
  O      182.988    -145.083       9.950
  O      185.509    -145.378      10.131
  H      185.178    -140.454       4.126
  H      185.282    -146.064       9.475
  H      180.161    -137.819       7.871
  H      181.834    -139.647       7.802
  H      182.976    -141.073       4.611
  H      184.574    -139.054       5.806
  H      184.163    -139.920       8.036
  H      184.505    -142.709       6.813
  H      179.044    -136.206       4.713
  H      183.238    -141.657       9.355
  H      178.808    -136.241       6.438
  H      182.690    -143.182       8.621
  P      186.686    -139.809       8.794
  C      186.115    -141.017      10.985
  O      187.132    -140.687      10.054
  O      185.897    -138.579       9.117
  O      188.090    -139.424       8.121
  H      188.332    -138.518       8.392
  H      186.421    -141.905      11.544
  H      185.165    -141.220      10.480
  H      185.982    -140.186      11.687
  H      183.724    -143.928      13.782
  H      183.679    -145.464      12.952
  H      182.471    -144.249      12.607

 3  4  5  6  7  8  9  10  11  12  13  23  27  28  29  30  32 0
 6-311+G(2d,p)
 ****
 34  35 0
 6-311+G(2d,p)
 ****
 1  2  14  15  16  17  18  19  20  21  22  24  25  26 0
 3-21G
 ****
 31  33  36  37  38  39  40  41  42  43  44  45  46 0
 3-21G
 ****


