%nproc=1
%NoSave
%Mem=1900MB
#P OB98/GEN NMR

erre ene a

0 1
  C     -136.030     -63.918    -585.357
  O     -136.733     -64.810    -584.516
  H     -135.809     -64.405    -586.312
  H     -136.654     -63.042    -585.541
  H     -135.100     -63.594    -584.883
  P     -135.925     -66.087    -583.977
  C     -135.425     -68.461    -584.920
  O     -136.032     -67.192    -585.137
  C     -135.246     -69.203    -586.241
  O     -136.507     -69.842    -586.589
  C     -134.848     -68.293    -587.403
  O     -133.906     -68.987    -588.235
  C     -136.148     -68.090    -588.160
  O     -135.936     -67.772    -589.534
  C     -136.844     -69.430    -587.930
  N     -140.903     -71.204    -590.473
  C     -139.605     -71.567    -590.475
  N     -138.583     -71.050    -589.762
  C     -139.029     -70.077    -588.946
  C     -140.322     -69.591    -588.832
  C     -141.287     -70.189    -589.657
  N     -142.608     -69.796    -589.688
  N     -140.369     -68.559    -587.908
  C     -139.130     -68.430    -587.476
  N     -138.288     -69.320    -588.073
  O     -136.899     -66.648    -582.832
  O     -134.551     -65.817    -583.459
  H     -135.633     -68.582    -589.989
  H     -136.784     -66.120    -582.019
  H     -139.353     -72.387    -591.142
  H     -138.803     -67.706    -586.743
  H     -136.508     -70.211    -588.626
  H     -136.721     -67.272    -587.704
  H     -134.413     -67.347    -587.075
  H     -134.516     -70.007    -586.094
  H     -136.065     -69.052    -584.243
  H     -143.223     -70.241    -590.349
  H     -142.898     -69.005    -589.130
  H     -134.446     -68.314    -584.442
  P     -132.563     -68.192    -588.626
  C     -131.551     -67.134    -590.750
  O     -132.711     -67.650    -590.127
  O     -131.469     -69.359    -588.737
  O     -132.166     -67.170    -587.609
  H     -130.673     -69.127    -588.219
  H     -131.792     -66.810    -591.741
  H     -130.802     -67.897    -590.796
  H     -131.181     -66.305    -590.184

 6  7  8  9  10  11  12  13  14  15  25  28  32  33  34  35 0
 6-311+G(2d,p)
 ****
 36  39  40 0
 6-311+G(2d,p)
 ****
 1  2  3  4  5  16  17  18  19  20  21  22  23  24 0
 3-21G
 ****
 26  27  29  30  31  37  38  41  42  43  44  45  46  47 0
 3-21G
 ****
 48 0
 3-21G
 ****


