%nproc=1
%NoSave
%Mem=1900MB
#P OB98/GEN NMR

erre ene a

0 1
  C      469.583    -891.838    -543.126
  O      469.438    -892.078    -541.742
  H      470.260    -890.988    -543.262
  H      468.616    -891.608    -543.571
  H      470.019    -892.718    -543.623
  P      468.499    -893.308    -541.326
  C      470.284    -894.548    -539.892
  O      469.481    -894.548    -541.059
  C      471.692    -895.088    -540.211
  O      472.329    -894.198    -541.160
  C      472.613    -895.158    -538.984
  O      473.546    -896.228    -539.190
  C      473.328    -893.828    -539.063
  O      474.477    -893.808    -538.212
  C      473.560    -893.758    -540.570
  N      476.348    -891.108    -543.939
  C      476.170    -892.448    -543.779
  N      475.398    -893.068    -542.856
  C      474.755    -892.178    -542.091
  C      474.827    -890.798    -542.148
  C      475.685    -890.258    -543.148
  N      475.877    -888.908    -543.320
  N      474.038    -890.218    -541.185
  C      473.481    -891.238    -540.545
  N      473.899    -892.428    -541.054
  O      467.761    -893.698    -542.702
  O      467.525    -893.028    -540.226
  H      474.970    -892.978    -538.343
  H      466.900    -893.258    -542.740
  H      476.724    -893.068    -544.451
  H      472.790    -891.168    -539.727
  H      474.362    -894.438    -540.885
  H      472.682    -893.008    -538.724
  H      472.078    -895.338    -538.035
  H      471.593    -896.068    -540.702
  H      469.798    -895.188    -539.137
  H      470.368    -893.528    -539.490
  H      476.512    -888.618    -544.044
  H      475.399    -888.268    -542.706
  P      473.353    -897.618    -538.413
  C      473.519    -899.328    -540.398
  O      472.696    -898.678    -539.413
  O      472.127    -897.268    -537.435
  O      474.538    -898.088    -537.624
  H      472.180    -897.828    -536.637
  H      472.920    -900.000    -540.976
  H      474.297    -899.876    -539.908
  H      473.953    -898.592    -541.042

 6  7  8  9  10  11  12  13  14  15  25  28  32  33  34  35 0
 6-311+G(2d,p)
 ****
 36  37  40 0
 6-311+G(2d,p)
 ****
 1  2  3  4  5  16  17  18  19  20  21  22  23  24 0
 3-21G
 ****
 26  27  29  30  31  38  39 41  42  43  44  45  46  47  48 0
 3-21G
 ****


