%nproc=1
%NoSave
%Mem=1900MB
#P OB98/GEN NMR

erre ene a

0 1
  C      161.038     -94.043    -855.370
  O      161.251     -94.110    -856.775
  P      161.542     -95.558    -857.407
  C      161.417     -96.557    -859.807
  O      161.027     -95.519    -858.921
  C      161.104     -96.161    -861.259
  O      159.689     -95.931    -861.410
  C      161.776     -94.877    -861.717
  O      163.149     -95.089    -862.000
  C      160.917     -94.550    -862.936
  O      161.316     -95.354    -864.055
  C      159.517     -94.960    -862.470
  N      157.687     -90.285    -863.520
  C      158.461     -91.126    -864.231
  N      158.923     -92.354    -863.873
  C      158.498     -92.673    -862.644
  C      157.735     -91.903    -861.785
  C      157.304     -90.653    -862.265
  N      156.525     -89.795    -861.539
  N      157.512     -92.558    -860.592
  C      158.141     -93.709    -860.727
  N      158.737     -93.837    -861.958
  O      160.470     -96.494    -856.677
  O      162.943     -96.058    -857.219
  H      161.262     -96.292    -863.781
  H      160.824     -97.392    -856.532
  H      158.747     -90.792    -865.223
  H      158.191     -94.484    -859.965
  H      158.919     -95.429    -863.260
  H      160.994     -93.497    -863.246
  H      161.667     -94.092    -860.962
  H      161.384     -97.006    -861.902
  H      160.863     -97.466    -859.564
  H      156.390     -88.854    -861.893
  H      156.361     -90.005    -860.558
  H      162.485     -96.755    -859.681
  P      164.130     -93.827    -861.845
  C      166.422     -93.509    -860.716
  O      165.408     -94.436    -861.078
  O      163.401     -92.985    -860.695
  O      164.423     -93.101    -863.109
  H      163.154     -93.546    -859.939
  H      167.199     -94.042    -860.165
  H      166.009     -92.719    -860.087
  H      166.866     -93.081    -861.620
  H      160.857     -93.028    -855.085
  H      161.905     -94.407    -854.860
  H      160.192     -94.643    -855.109

 3  4  5  6  7  8  9  10  11  12  22  25  29  30  31  32 0
 6-311+G(2d,p)
 ****
 33  36  37 0
 6-311+G(2d,p)
 ****
 1  2  13  14  15  16  17  18  19  20  21  23  24  26 0
 3-21G
 ****
 27  28  34  35  38  39  40  41  42  43  44  45  46  47  48 0
 3-21G
 ****


