%nproc=1
%NoSave
%Mem=1900MB
#P OB98/GEN NMR

erre ene a

0 1
  C     -314.065    -228.946     360.378
  O     -313.559    -229.852     361.346
  P     -312.591    -229.258     362.490
  C     -313.671    -230.564     364.455
  O     -312.513    -230.365     363.644
  C     -313.492    -231.813     365.324
  O     -313.607    -233.017     364.528
  C     -312.124    -231.916     366.006
  O     -312.061    -231.118     367.193
  C     -312.079    -233.397     366.351
  O     -312.845    -233.642     367.542
  C     -312.767    -234.031     365.131
  N     -309.605    -237.814     363.964
  C     -310.572    -237.745     364.946
  N     -310.672    -238.810     365.785
  N     -311.374    -236.721     365.117
  C     -311.159    -235.722     364.213
  C     -310.231    -235.687     363.188
  C     -309.346    -236.817     363.042
  O     -308.440    -236.925     362.216
  N     -310.317    -234.519     362.477
  C     -311.289    -233.851     363.076
  N     -311.792    -234.530     364.155
  O     -313.464    -228.085     363.149
  O     -311.266    -228.760     361.989
  H     -313.736    -233.253     367.392
  H     -312.878    -227.482     363.661
  H     -309.012    -238.626     363.897
  H     -311.652    -232.869     362.761
  H     -313.414    -234.860     365.418
  H     -311.066    -233.743     366.540
  H     -310.046    -239.602     365.760
  H     -311.310    -231.675     365.317
  H     -311.330    -238.754     366.558
  H     -314.305    -231.826     366.078
  H     -314.552    -230.686     363.821
  H     -313.821    -229.681     365.091
  P     -310.749    -230.199     367.368
  C     -312.264    -228.711     368.865
  O     -311.026    -229.340     368.710
  O     -310.899    -229.134     366.195
  O     -309.457    -230.943     367.305
  H     -310.022    -228.776     365.926
  H     -312.380    -228.403     369.918
  H     -313.099    -229.377     368.600
  H     -312.319    -227.813     368.240
  H     -314.688    -229.474     359.686
  H     -313.250    -228.495     359.852
  H     -314.639    -228.186     360.866

 3  4  5  6  7  8  9  10  11  12  23  26  30  31 0
 6-311+G(2d,p)
 ****
 33  35  36  37  38 0
 6-311+G(2d,p)
 ****
 1  2  13  14  15  16  17  18  19  20  21  22  24  25 0
 3-21G
 ****
 27  28  29  32  34  39  40  41  42  43  44  45  46  47  48  49 0
 3-21G
 ****


