%nproc=1
%NoSave
%Mem=1900MB
#P OB98/GEN NMR

erre ene a

0 1
  C     -144.194    -115.042     441.132
  O     -145.313    -115.919     441.329
  P     -145.808    -116.389     442.778
  C     -147.858    -114.830     442.875
  O     -146.619    -115.198     443.473
  C     -148.436    -113.557     443.502
  O     -147.459    -112.500     443.494
  C     -149.656    -112.990     442.791
  O     -150.817    -113.743     443.079
  C     -149.670    -111.559     443.327
  O     -150.298    -111.500     444.618
  C     -148.166    -111.245     443.436
  N     -147.689    -110.413     442.335
  C     -147.804    -109.032     442.503
  O     -148.341    -108.566     443.510
  N     -147.331    -108.208     441.508
  C     -146.857    -108.721     440.415
  N     -146.400    -107.854     439.471
  C     -146.803    -110.171     440.159
  C     -147.229    -110.951     441.157
  O     -144.721    -116.965     443.632
  O     -146.934    -117.493     442.497
  H     -150.281    -110.564     444.895
  H     -146.933    -118.143     443.222
  H     -146.425    -110.561     439.229
  H     -147.213    -112.031     441.060
  H     -147.951    -110.733     444.381
  H     -150.216    -110.869     442.674
  H     -149.474    -112.967     441.706
  H     -148.677    -113.780     444.552
  H     -146.446    -106.870     439.677
  H     -148.565    -115.656     443.018
  H     -146.010    -108.153     438.588
  H     -147.703    -114.685     441.799
  P     -151.331    -114.845     442.035
  C     -150.999    -116.836     443.617
  O     -150.619    -116.230     442.398
  O     -151.260    -114.451     440.595
  O     -152.851    -115.105     442.477
  H     -153.376    -115.335     441.691
  H     -150.777    -117.907     443.562
  H     -152.070    -116.705     443.809
  H     -150.428    -116.394     444.436
  H     -144.055    -114.871     440.085
  H     -143.313    -115.491     441.541
  H     -144.380    -114.110     441.624

 3  4  5  6  7  8  9  10  11  12  13  23  27  28  29  30  32 0
 6-311+G(2d,p)
 ****
 34  35 0
 6-311+G(2d,p)
 ****
 1  2  14  15  16  17  18  19  20  21  22  24  25  26 0
 3-21G
 ****
 31  33  36  37  38  39  40  41  42  43  44  45  46 0
 3-21G
 ****


