%nproc=1
%NoSave
%Mem=1900MB
#P OB98/GEN NMR

erre ene a

0 1
  C       57.998     221.994    -140.817
  O       57.857     223.326    -141.273
  P       58.927     223.946    -142.293
  C       59.766     225.541    -140.460
  O       60.129     224.573    -141.440
  C       60.513     225.285    -139.153
  O       60.446     223.888    -138.786
  C       61.999     225.606    -139.216
  O       62.241     227.000    -139.229
  C       62.506     224.876    -137.980
  O       62.271     225.651    -136.794
  C       61.618     223.612    -137.981
  N       62.329     222.435    -138.459
  C       63.507     222.108    -137.778
  O       63.935     222.838    -136.885
  N       64.171     220.960    -138.135
  C       63.768     220.274    -139.158
  N       64.430     219.116    -139.428
  C       62.624     220.679    -140.003
  C       61.946     221.745    -139.586
  O       58.360     224.851    -143.335
  O       59.607     222.662    -142.969
  H       59.596     222.775    -143.940
  H       62.380     225.039    -136.039
  H       62.371     220.107    -140.885
  H       61.076     222.102    -140.130
  H       61.244     223.412    -136.970
  H       63.581     224.674    -138.027
  H       62.436     225.151    -140.112
  H       60.027     225.871    -138.363
  H       65.195     218.862    -138.816
  H       58.687     225.474    -140.287
  H       64.013     218.364    -139.973
  H       59.989     226.540    -140.842
  P       62.852     227.618    -140.578
  C       65.100     228.127    -139.398
  O       64.447     227.498    -140.480
  O       62.579     229.188    -140.421
  O       62.251     227.085    -141.835
  H       62.366     229.573    -141.292
  H       66.090     227.677    -139.275
  H       64.542     228.009    -138.465
  H       65.225     229.194    -139.616
  H       57.196     221.759    -140.149
  H       58.932     221.889    -140.305
  H       57.973     221.326    -141.653

 3  4  5  6  7  8  9  10  11  12  13  24  27  28  29  30  32 0
 6-311+G(2d,p)
 ****
 34  35 0
 6-311+G(2d,p)
 ****
 1  2  14  15  16  17  18  19  20  21  22  23  25  26 0
 3-21G
 ****
 31  33  36  37  38  39  40  41  42  43  44  45  46 0
 3-21G
 ****


