%nproc=1
%NoSave
%Mem=1900MB
#P OB98/GEN NMR

erre ene a

0 1
  C      263.850    -844.449       5.525
  O      264.272    -843.168       5.024
  P      263.747    -842.769       3.563
  C      262.704    -840.586       4.517
  O      263.549    -841.180       3.536
  C      262.748    -839.057       4.460
  O      263.993    -838.591       5.052
  C      262.672    -838.448       3.049
  O      261.896    -837.258       3.105
  C      264.116    -838.057       2.753
  O      264.197    -837.044       1.757
  C      264.556    -837.631       4.153
  N      268.683    -834.675       4.176
  C      267.346    -834.332       4.115
  N      267.070    -833.000       4.016
  N      266.368    -835.189       4.139
  C      266.789    -836.487       4.259
  C      268.081    -836.953       4.330
  C      269.156    -835.985       4.272
  O      270.354    -836.228       4.264
  N      268.114    -838.315       4.455
  C      266.833    -838.682       4.440
  N      266.006    -837.596       4.305
  O      262.252    -843.350       3.543
  O      264.567    -843.340       2.438
  H      263.667    -836.294       2.094
  H      262.138    -843.960       2.784
  H      269.400    -833.963       4.137
  H      266.476    -839.701       4.484
  H      264.172    -836.637       4.396
  H      264.649    -838.943       2.409
  H      267.772    -832.283       4.062
  H      262.249    -839.128       2.295
  H      266.090    -832.725       4.020
  H      261.923    -838.673       5.084
  H      263.033    -840.917       5.508
  H      261.680    -840.947       4.359
  P      260.692    -837.127       2.030
  C      258.957    -836.423       3.865
  O      259.669    -836.062       2.673
  O      259.925    -838.518       2.176
  O      261.139    -836.852       0.652
  H      259.471    -838.752       1.348
  H      259.360    -837.323       4.337
  H      257.900    -836.587       3.607
  H      259.030    -835.592       4.566
  H      264.260    -844.603       6.501
  H      264.194    -845.220       4.868
  H      262.782    -844.477       5.578

 3  4  5  6  7  8  9  10  11  12  23  26  30  31  33  0
 6-311+G(2d,p)
 ****
 35  36  37  38 0
 6-311+G(2d,p)
 ****
 1  2  13  14  15  16  17  18  19  20  21  22  24  25  27  28  29 0
 3-21G
 ****
 32  34  39  40  41  42  43  44  45  46  47  48  49 0
 3-21G
 ****


