%nproc=1
%NoSave
%Mem=1900MB
#P OB98/GEN NMR

erre ene a

0 1
  C     -137.707      30.086     317.069
  O     -138.104      28.793     317.499
  P     -136.973      27.826     318.102
  C     -136.855      29.009     320.452
  O     -136.217      28.687     319.225
  C     -136.091      28.384     321.622
  O     -136.354      26.966     321.677
  C     -134.578      28.516     321.532
  O     -134.137      29.820     321.885
  C     -134.128      27.413     322.488
  O     -134.214      27.866     323.849
  C     -135.183      26.319     322.224
  N     -134.701      25.256     321.343
  C     -133.497      24.659     321.702
  O     -132.856      24.982     322.698
  N     -133.045      23.676     320.857
  C     -133.633      23.290     319.688
  O     -133.160      22.436     318.947
  C     -134.883      23.982     319.344
  C     -135.352      24.918     320.173
  O     -135.949      27.769     316.875
  O     -137.506      26.505     318.545
  H     -136.000      28.571     316.324
  H     -133.878      27.137     324.405
  H     -132.187      23.211     321.111
  H     -135.374      23.709     318.418
  H     -136.268      25.443     319.934
  H     -135.502      25.865     323.168
  H     -133.095      27.097     322.313
  H     -134.241      28.278     320.515
  H     -136.462      28.831     322.553
  H     -137.880      28.623     320.436
  H     -136.893      30.099     320.558
  P     -132.735      30.295     321.264
  C     -133.731      31.731     319.320
  O     -133.004      30.586     319.714
  O     -131.909      28.922     321.271
  O     -132.088      31.408     322.026
  H     -132.441      28.162     320.983
  H     -133.508      31.944     318.272
  H     -133.461      32.602     319.924
  H     -134.802      31.534     319.419
  H     -138.559      30.614     316.694
  H     -136.974      29.995     316.295
  H     -137.289      30.624     317.894

 3  4  5  6  7  8  9  10  11  12  13  24  28  29  30  31  32 0
 6-311+G(2d,p)
 ****
 33  34 0
 6-311+G(2d,p)
 ****
 1  2  14  15  16  17  18  19  20  21  22  23  25  26  27 0
 3-21G
 ****
 35  36  37  38  39  40  41  42  43  44  45 0
 3-21G
 ****


