%nproc=1
%NoSave
%Mem=1900MB
#P OB98/GEN NMR

erre ene a

0 1
  C     -825.705    -896.775    -643.210
  O     -826.514    -896.882    -642.059
  P     -825.855    -897.002    -640.598
  C     -824.419    -898.681    -639.298
  O     -825.234    -898.468    -640.448
  C     -824.941    -899.885    -638.504
  O     -825.081    -901.053    -639.365
  C     -824.023    -900.325    -637.376
  O     -824.072    -899.438    -636.280
  C     -824.576    -901.702    -637.077
  O     -825.745    -901.632    -636.256
  C     -824.949    -902.190    -638.482
  N     -823.985    -903.152    -639.039
  C     -824.067    -904.470    -638.557
  O     -824.882    -904.755    -637.674
  N     -823.233    -905.419    -639.096
  C     -822.305    -905.077    -639.929
  N     -821.562    -906.061    -640.473
  C     -822.097    -903.664    -640.331
  C     -822.953    -902.777    -639.856
  O     -826.716    -896.570    -639.470
  O     -824.552    -896.076    -640.708
  H     -824.528    -895.466    -639.923
  H     -825.435    -901.519    -635.334
  H     -821.255    -903.419    -640.983
  H     -822.877    -901.715    -640.132
  H     -825.949    -902.674    -638.483
  H     -823.861    -902.335    -636.557
  H     -823.000    -900.414    -637.749
  H     -825.944    -899.637    -638.090
  H     -821.762    -907.007    -640.183
  H     -824.480    -897.787    -638.684
  H     -821.052    -905.947    -641.335
  H     -823.393    -898.853    -639.617
  P     -822.683    -899.190    -635.501
  C     -821.066    -900.661    -634.087
  O     -822.272    -900.596    -634.829
  O     -823.115    -898.308    -634.228
  O     -821.621    -898.512    -636.291
  H     -822.430    -897.664    -634.009
  H     -821.095    -901.559    -633.450
  H     -820.950    -899.776    -633.456
  H     -820.202    -900.763    -634.781
  H     -826.327    -896.706    -644.078
  H     -825.079    -897.639    -643.288
  H     -825.095    -895.899    -643.137

 3  4  5  6  7  8  9  10  11  12  13  24  27  28  29  30  32 0
 6-311+G(2d,p)
 ****
 34  35 0
 6-311+G(2d,p)
 ****
 1  2  14  15  16  17  18  19  20  21  22  23  25  26 0
 3-21G
 ****
 31  33  36  37  38  39  40  41  42  43  44  45  46 0
 3-21G
 ****


