%nproc=1
%NoSave
%Mem=1900MB
#P OB98/GEN NMR

erre ene a

0 1
  C     -937.300    -941.083     677.631
  O     -936.311    -941.931     677.071
  P     -936.831    -943.320     676.435
  C     -936.692    -942.623     673.921
  O     -936.180    -943.425     674.975
  C     -935.561    -942.278     672.943
  O     -934.690    -941.277     673.516
  C     -934.667    -943.459     672.572
  O     -935.257    -944.239     671.560
  C     -933.385    -942.735     672.130
  O     -933.501    -942.274     670.771
  C     -933.333    -941.565     673.113
  N     -928.644    -941.257     675.055
  C     -929.097    -941.067     673.759
  N     -928.174    -940.696     672.850
  N     -930.342    -941.210     673.374
  C     -931.148    -941.609     674.387
  C     -930.845    -941.852     675.700
  C     -929.467    -941.627     676.117
  O     -929.060    -941.684     677.264
  N     -931.927    -942.254     676.409
  C     -932.918    -942.220     675.539
  N     -932.501    -941.823     674.300
  O     -938.383    -943.036     676.143
  O     -936.629    -944.534     677.293
  H     -932.657    -941.854     670.499
  H     -938.948    -943.401     676.864
  H     -927.682    -941.104     675.287
  H     -933.953    -942.462     675.763
  H     -932.922    -940.656     672.643
  H     -932.507    -943.400     672.156
  H     -927.182    -940.569     673.068
  H     -934.450    -944.068     673.457
  H     -928.458    -940.547     671.897
  H     -936.006    -941.836     672.038
  H     -937.093    -941.691     674.327
  H     -937.482    -943.174     673.400
  P     -934.781    -945.755     671.406
  C     -936.052    -946.884     673.372
  O     -935.943    -946.696     671.970
  O     -933.621    -945.886     672.512
  O     -934.267    -946.108     670.045
  H     -932.893    -946.472     672.157
  H     -937.088    -947.061     673.610
  H     -935.697    -946.008     673.939
  H     -935.466    -947.759     673.671
  H     -936.835    -940.200     678.018
  H     -937.804    -941.597     678.423
  H     -938.007    -940.812     676.875

 3  4  5  6  7  8  9  10  11  12  23  26  30  31 0
 6-311+G(2d,p)
 ****
 33  35  36  37  38 0
 6-311+G(2d,p)
 ****
 1  2  13  14  15  16  17  18  19  20  21  22  24  25 0
 3-21G
 ****
 27  28  29  32  34  39  40  41  42  43  44  45  46  47  48  49 0
 3-21G
 ****


