%nproc=1
%NoSave
%Mem=1900MB
#P OB98/GEN NMR

erre ene a

0 1
  C       59.592     196.870      80.095
  O       58.355     196.762      79.426
  P       57.037     197.442      80.034
  C       56.743     195.299      81.431
  O       56.771     196.723      81.445
  C       55.509     194.791      82.170
  O       55.334     195.484      83.433
  C       54.199     195.026      81.430
  O       54.002     194.327      80.222
  C       53.186     194.794      82.539
  O       52.942     193.403      82.739
  C       53.925     195.395      83.762
  N       53.375     196.694      84.148
  C       53.487     197.026      85.493
  O       54.010     196.295      86.335
  N       52.945     198.227      85.860
  C       52.275     199.087      85.039
  O       51.773     200.128      85.444
  C       52.174     198.675      83.631
  C       52.720     197.516      83.253
  O       55.859     197.470      79.120
  O       57.546     198.893      80.484
  H       53.800     192.979      82.936
  H       58.260     198.886      81.145
  H       53.002     198.481      86.833
  H       51.660     199.341      82.952
  H       52.657     197.190      82.220
  H       53.847     194.721      84.624
  H       52.223     195.263      82.314
  H       54.145     196.090      81.165
  H       55.658     193.733      82.401
  H       57.640     194.921      81.931
  H       56.762     194.945      80.395
  P       53.278     194.964      78.942
  C       50.991     193.763      78.728
  O       51.693     194.902      79.178
  O       53.793     194.549      77.605
  O       53.579     196.529      79.152
  H       53.646     196.959      78.278
  H       49.925     193.908      78.927
  H       51.327     192.871      79.262
  H       51.128     193.628      77.651
  H       60.345     196.355      79.537
  H       59.510     196.435      81.069
  H       59.859     197.902      80.186

 3  4  5  6  7  8  9  10  11  12  13  23  28  29  30  31  32 0
 6-311+G(2d,p)
 ****
 33  34 0
 6-311+G(2d,p)
 ****
 1  2  14  15  16  17  18  19  20  21  22  24  25  26  27 0
 3-21G
 ****
 35  36  37  38  39  40  41  42  43  44  45 0
 3-21G
 ****


