%nproc=1
%NoSave
%Mem=1900MB
#P OB98/GEN NMR

erre ene a

0 1
  C       39.386    -199.956     -95.883
  O       39.007    -199.050     -96.900
  H       40.430    -199.768     -95.617
  H       39.293    -200.985     -96.239
  H       38.764    -199.810     -94.996
  P       37.515    -199.208     -97.471
  C       36.151    -201.127     -98.559
  O       37.395    -200.719     -98.004
  C       36.141    -202.635     -98.795
  O       36.670    -203.335     -97.649
  C       34.760    -203.218     -99.071
  O       34.410    -203.070    -100.437
  C       34.970    -204.673     -98.671
  O       35.633    -205.408     -99.722
  C       35.882    -204.540     -97.444
  N       33.175    -207.148     -94.069
  C       33.667    -207.525     -95.304
  N       33.365    -208.776     -95.717
  N       34.375    -206.745     -96.074
  C       34.547    -205.501     -95.562
  C       34.112    -205.006     -94.355
  C       33.377    -205.901     -93.487
  O       32.987    -205.651     -92.349
  N       34.505    -203.703     -94.183
  C       35.144    -203.404     -95.299
  N       35.191    -204.462     -96.171
  O       37.539    -198.344     -98.821
  O       36.427    -198.752     -96.559
  H       35.506    -206.361     -99.573
  H       36.679    -197.889     -98.916
  H       32.663    -207.800     -93.505
  H       35.593    -202.445     -95.519
  H       36.585    -205.376     -97.366
  H       34.021    -205.182     -98.492
  H       32.603    -209.305     -95.318
  H       34.005    -202.768     -98.416
  H       33.662    -209.027     -96.653
  H       36.820    -202.839     -99.636
  H       36.002    -200.608     -99.510
  H       35.344    -200.856     -97.870
  P       32.879    -203.286    -100.852
  C       31.400    -205.284    -101.611
  O       32.636    -204.861    -101.050
  O       32.829    -202.708    -102.347
  O       31.891    -202.591     -99.979
  H       32.384    -201.840    -102.349
  H       31.386    -206.352    -101.680
  H       31.289    -204.862    -102.588
  H       30.595    -204.956    -100.987

 6  7  8  9  10  11  12  13  14  15  26  29  33  34 0
 6-311+G(2d,p)
 ****
 36  38  39  40  41 0
 6-311+G(2d,p)
 ****
 1  2  3  4  5  16  17  18  19  20  21  22  23  24  25 0
 3-21G
 ****
 27  28  30  31  32  35  37  42  43  44  45  46  47 0
 3-21G
 ****
 48  49 0
 3-21G
 ****


