%nproc=1
%NoSave
%Mem=1900MB
#P OB98/GEN NMR

erre ene a

0 1
  C       30.490      22.686       3.538
  O       30.574      24.065       3.240
  H       30.350      22.134       2.605
  H       29.643      22.480       4.198
  H       31.418      22.346       4.008
  P       30.523      25.107       4.462
  C       32.632      26.159       3.403
  O       32.019      25.681       4.599
  C       33.978      25.469       3.161
  O       33.772      24.073       2.859
  C       34.747      26.024       1.973
  O       35.247      27.330       2.168
  C       35.712      24.891       1.649
  O       36.913      24.932       2.412
  C       34.882      23.644       2.046
  N       34.443      22.885       0.879
  C       35.448      22.270       0.143
  O       36.646      22.356       0.420
  N       35.040      21.571      -0.960
  C       33.756      21.479      -1.415
  O       33.455      20.870      -2.437
  C       32.738      22.172      -0.609
  C       33.121      22.836       0.486
  O       29.958      24.577       5.745
  O       29.712      26.351       3.866
  H       37.301      25.820       2.288
  H       29.385      26.941       4.588
  H       35.753      21.109      -1.501
  H       31.708      22.121      -0.940
  H       32.389      23.357       1.098
  H       35.484      22.974       2.673
  H       36.001      24.901       0.595
  H       34.057      26.090       1.123
  H       34.570      25.534       4.081
  H       32.797      27.236       3.523
  H       31.960      25.998       2.554
  P       34.476      28.645       1.684
  C       35.264      30.163       3.642
  O       34.165      29.551       2.978
  O       33.399      28.456       0.666
  O       35.672      29.467       0.976
  H       35.285      29.956       0.225
  H       34.906      30.729       4.477
  H       35.774      30.813       2.962
  H       35.938      29.407       3.986

 6  7  8  9  10  11  12  13  14  15  16  26  31  32  33  34  35 0
 6-311+G(2d,p)
 ****
 36  37 0
 6-311+G(2d,p)
 ****
 1  2  3  4  5  17  18  19  20  21  22  23  24  25 0
 3-21G
 ****
 27  28  29  30  38  39  40  41  42  43  44  45 0
 3-21G
 ****


