%nproc=1
%NoSave
%Mem=1900MB
#P OB98/GEN NMR

erre ene a

0 1
  C     1140.931    1515.704    -523.348
  O     1140.636    1517.075    -523.182
  H     1141.966    1515.530    -523.035
  H     1140.829    1515.429    -524.399
  H     1140.265    1515.089    -522.743
  P     1139.148    1517.555    -523.569
  C     1138.637    1517.300    -521.021
  O     1138.218    1517.036    -522.363
  C     1137.451    1517.113    -520.067
  O     1136.442    1518.101    -520.337
  C     1136.803    1515.695    -520.168
  O     1136.531    1515.217    -518.845
  C     1135.513    1515.973    -520.918
  O     1134.513    1515.004    -520.626
  C     1135.184    1517.417    -520.499
  N     1134.358    1518.099    -521.500
  C     1133.055    1517.555    -521.707
  O     1132.682    1516.566    -521.073
  N     1132.254    1518.133    -522.665
  C     1132.702    1519.109    -523.376
  N     1131.862    1519.617    -524.322
  C     1134.057    1519.673    -523.215
  C     1134.820    1519.134    -522.271
  O     1138.760    1516.608    -524.787
  O     1139.008    1519.019    -523.869
  H     1133.733    1515.221    -521.172
  H     1137.961    1516.924    -525.261
  H     1134.404    1520.491    -523.864
  H     1135.832    1519.453    -522.087
  H     1134.649    1517.432    -519.541
  H     1135.716    1515.937    -522.009
  H     1137.418    1515.003    -520.687
  H     1137.809    1517.307    -519.036
  H     1130.929    1519.206    -524.389
  H     1138.989    1518.345    -520.958
  H     1132.118    1520.364    -524.960
  H     1139.450    1516.626    -520.752
  P     1137.598    1514.171    -518.268
  C     1138.441    1515.725    -516.342
  O     1138.764    1515.028    -517.546
  O     1138.309    1513.610    -519.578
  O     1136.999    1513.118    -517.433
  H     1137.935    1512.752    -519.814
  H     1139.307    1516.242    -515.986
  H     1138.114    1515.025    -515.602
  H     1137.660    1516.430    -516.537

 6  7  8  9  10  11  12  13  14  15  16  26  30  31  32  33  35 0
 6-311+G(2d,p)
 ****
 37  38 0
 6-311+G(2d,p)
 ****
 1  2  3  4  5  17  18  19  20  21  22  23  24  25 0
 3-21G
 ****
 27  28  29  34  36  39  40  41  42  43  44  45  46 0
 3-21G
 ****


