%nproc=1
%NoSave
%Mem=1900MB
#P OB98/GEN NMR

erre ene a

0 1
  C      -25.946     -36.839      31.623
  O      -24.719     -36.242      32.009
  P      -24.412     -35.931      33.551
  C      -25.983     -33.906      33.348
  O      -25.651     -35.068      34.099
  C      -26.970     -33.031      34.119
  O      -28.121     -33.833      34.477
  C      -26.394     -32.456      35.407
  O      -26.924     -31.142      35.604
  C      -26.940     -33.359      36.500
  O      -27.012     -32.668      37.759
  C      -28.291     -33.767      35.906
  N      -30.916     -36.268      39.541
  C      -30.687     -34.952      39.344
  N      -29.959     -34.358      38.373
  C      -29.486     -35.275      37.513
  C      -29.641     -36.651      37.581
  C      -30.394     -37.150      38.658
  N      -30.637     -38.493      38.849
  N      -28.983     -37.269      36.534
  C      -28.461     -36.282      35.840
  N      -28.746     -35.057      36.385
  O      -23.074     -35.333      33.820
  O      -24.595     -37.335      34.290
  H      -26.094     -32.437      38.012
  H      -23.926     -37.438      34.994
  H      -31.146     -34.283      40.068
  H      -27.863     -36.398      34.949
  H      -29.068     -33.023      36.122
  H      -26.278     -34.223      36.627
  H      -25.299     -32.421      35.406
  H      -27.320     -32.230      33.456
  H      -26.442     -34.222      32.407
  H      -31.286     -38.747      39.576
  H      -30.398     -39.131      38.102
  H      -25.069     -33.348      33.118
  P      -25.862     -30.016      36.052
  C      -26.344     -30.036      38.610
  O      -25.477     -30.396      37.559
  O      -26.374     -28.635      35.806
  O      -24.587     -30.424      35.174
  H      -24.604     -31.377      34.936
  H      -25.893     -30.345      39.557
  H      -27.304     -30.548      38.501
  H      -26.497     -28.953      38.627
  H      -25.963     -36.965      30.561
  H      -26.758     -36.209      31.920
  H      -26.043     -37.793      32.097

 3  4  5  6  7  8  9  10  11  12  22  25  29  30  31  32 0
 6-311+G(2d,p)
 ****
 33  36  37 0
 6-311+G(2d,p)
 ****
 1  2  13  14  15  16  17  18  19  20  21  23  24  26 0
 3-21G
 ****
 27  28  34  35  38  39  40  41  42  43  44  45  46  47  48 0
 3-21G
 ****


