%nproc=1
%NoSave
%Mem=1900MB
#P OB98/GEN NMR

erre ene a

0 1
  C      437.035    1377.190     759.005
  O      436.130    1377.556     760.020
  H      436.521    1377.242     758.044
  H      437.388    1376.164     759.159
  H      437.893    1377.868     758.968
  P      436.759    1377.741     761.492
  C      437.067    1380.327     761.510
  O      436.328    1379.219     761.983
  C      436.653    1381.612     762.267
  O      435.310    1381.999     761.856
  C      436.622    1381.451     763.779
  O      437.899    1381.612     764.342
  C      435.703    1382.613     764.142
  O      436.459    1383.856     764.084
  C      434.665    1382.557     763.030
  N      429.919    1382.582     764.855
  C      430.812    1383.642     764.690
  N      430.405    1384.859     765.086
  N      432.033    1383.471     764.201
  C      432.313    1382.211     763.849
  C      431.499    1381.081     763.971
  C      430.175    1381.258     764.510
  O      429.341    1380.398     764.652
  N      432.139    1379.965     763.516
  C      433.348    1380.393     763.140
  N      433.491    1381.745     763.345
  O      438.334    1377.890     761.218
  O      436.485    1376.638     762.454
  H      435.827    1384.580     764.211
  H      438.827    1377.465     761.939
  H      429.019    1382.753     765.241
  H      434.111    1379.770     762.721
  H      434.293    1383.554     762.742
  H      435.319    1382.552     765.160
  H      429.487    1385.024     765.527
  H      436.127    1380.502     764.076
  H      431.041    1385.644     764.961
  H      437.348    1382.408     761.961
  H      436.877    1380.458     760.444
  H      438.147    1380.131     761.652
  P      438.068    1381.209     765.921
  C      438.479    1378.632     766.013
  O      439.069    1379.946     765.924
  O      436.644    1380.587     766.280
  O      438.445    1382.335     766.805
  H      436.494    1380.656     767.247
  H      439.252    1377.893     766.005
  H      437.828    1378.476     765.178
  H      437.920    1378.553     766.922

 6  7  8  9  10  11  12  13  14  15  26  29  33  34 0
 6-311+G(2d,p)
 ****
 36  38  39  40  41 0
 6-311+G(2d,p)
 ****
 1  2  3  4  5  16  17  18  19  20  21  22  23  24  25 0
 3-21G
 ****
 27  28  30  31  32  35  37  42  43  44  45  46  47 0
 3-21G
 ****
 48  49 0
 3-21G
 ****


