%nproc=1
%NoSave
%Mem=1900MB
#P OB98/GEN NMR

erre ene a

0 1
  C     -116.419     -99.811      79.364
  O     -115.981    -100.074      78.049
  H     -117.511     -99.766      79.369
  H     -116.031     -98.846      79.699
  H     -116.099    -100.598      80.052
  P     -114.448    -100.468      77.803
  C     -114.594    -102.237      75.930
  O     -114.339    -100.878      76.256
  C     -116.101    -102.476      75.812
  O     -116.629    -101.565      74.800
  C     -116.463    -103.912      75.382
  O     -117.693    -104.281      76.016
  C     -116.676    -103.737      73.893
  O     -117.437    -104.782      73.343
  C     -117.353    -102.369      73.853
  N     -117.333    -101.801      72.508
  C     -117.828    -102.598      71.482
  O     -118.262    -103.736      71.652
  N     -117.744    -102.073      70.222
  C     -117.126    -100.905      69.884
  O     -117.009    -100.522      68.729
  C     -116.572    -100.129      71.005
  C     -116.705    -100.601      72.246
  O     -113.867    -101.462      78.753
  O     -113.670     -99.069      77.834
  H     -117.442    -104.715      72.370
  H     -112.724     -99.211      78.024
  H     -118.109    -102.635      69.468
  H     -116.061     -99.205      70.769
  H     -116.293    -100.065      73.093
  H     -118.392    -102.436      74.199
  H     -115.713    -103.714      73.374
  H     -115.685    -104.641      75.622
  H     -116.582    -102.214      76.761
  H     -114.179    -102.864      76.726
  H     -114.098    -102.486      74.986
  P     -117.722    -105.066      77.415
  C     -119.785    -104.187      78.667
  O     -119.237    -105.266      77.917
  O     -116.810    -104.499      78.455
  O     -117.260    -106.554      77.040
  H     -116.599    -106.857      77.692
  H     -120.790    -104.423      78.949
  H     -119.781    -103.299      78.070
  H     -119.196    -104.028      79.546

 6  7  8  9  10  11  12  13  14  15  16  26  31  32  33  34  35 0
 6-311+G(2d,p)
 ****
 36  37 0
 6-311+G(2d,p)
 ****
 1  2  3  4  5  17  18  19  20  21  22  23  24  25 0
 3-21G
 ****
 27  28  29  30  38  39  40  41  42  43  44  45 0
 3-21G
 ****


