%nproc=1
%NoSave
%Mem=1900MB
#P OB98/GEN NMR

erre ene a

0 1
  C       21.192    -150.383      -1.282
  O       20.675    -151.004      -0.121
  H       22.274    -150.281      -1.167
  H       20.759    -149.387      -1.395
  H       20.989    -150.986      -2.169
  P       19.124    -151.404      -0.080
  C       18.581    -149.221       1.185
  O       18.284    -150.042       0.063
  C       17.377    -148.346       1.551
  O       16.945    -147.630       0.365
  C       16.179    -149.140       2.082
  O       15.539    -148.391       3.113
  C       15.263    -149.243       0.876
  O       13.895    -149.404       1.248
  C       15.549    -147.932       0.149
  N       11.861    -147.913      -3.305
  C       11.807    -147.696      -1.941
  N       10.586    -147.457      -1.414
  N       12.858    -147.715      -1.161
  C       14.016    -147.944      -1.829
  C       14.200    -148.174      -3.173
  C       13.024    -148.172      -4.018
  O       13.009    -148.373      -5.233
  N       15.524    -148.385      -3.464
  C       16.137    -148.286      -2.299
  N       15.264    -148.030      -1.273
  O       18.771    -152.461       0.919
  O       18.797    -151.875      -1.571
  H       13.716    -148.755       1.963
  H       18.719    -152.844      -1.624
  H       11.020    -147.897      -3.856
  H       17.202    -148.393      -2.142
  H       14.953    -147.100       0.536
  H       15.554    -150.106       0.262
  H        9.739    -147.404      -1.959
  H       16.469    -150.118       2.467
  H       10.523    -147.265      -0.422
  H       17.701    -147.593       2.278
  H       19.433    -148.582       0.927
  H       18.858    -149.855       2.035
  P       15.891    -148.709       4.645
  C       14.004    -150.454       4.698
  O       15.368    -150.187       4.998
  O       15.508    -147.653       5.625
  O       17.485    -148.903       4.608
  H       17.866    -148.568       5.444
  H       13.769    -151.461       4.973
  H       13.837    -150.323       3.649
  H       13.380    -149.779       5.246

 6  7  8  9  10  11  12  13  14  15  26  29  33  34 0
 6-311+G(2d,p)
 ****
 36  38  39  40  41 0
 6-311+G(2d,p)
 ****
 1  2  3  4  5  16  17  18  19  20  21  22  23  24  25 0
 3-21G
 ****
 27  28  30  31  32  35  37  42  43  44  45  46  47 0
 3-21G
 ****
 48  49 0
 3-21G
 ****


