%nproc=1
%NoSave
%Mem=1900MB
#P OB98/GEN NMR

erre ene a

0 1
  C       76.648    -890.320     635.041
  O       75.760    -891.230     634.414
  H       76.415    -890.280     636.114
  H       76.523    -889.330     634.628
  H       77.685    -890.650     634.928
  P       76.006    -891.610     632.878
  C       76.758    -894.060     633.122
  O       75.711    -893.180     632.740
  C       76.175    -895.400     633.629
  O       75.411    -895.130     634.849
  C       75.223    -896.080     632.635
  O       75.320    -897.500     632.875
  C       73.873    -895.550     633.125
  O       72.777    -896.230     632.544
  C       74.079    -895.660     634.631
  N       73.105    -894.950     635.462
  C       72.315    -895.700     636.328
  O       72.383    -896.940     636.439
  N       71.405    -895.010     637.061
  C       71.215    -893.640     637.032
  O       70.396    -893.070     637.754
  C       72.075    -892.900     636.101
  C       72.964    -893.580     635.373
  O       77.293    -891.150     632.295
  O       74.748    -890.960     632.121
  H       75.018    -890.120     631.682
  H       72.917    -896.290     631.570
  H       70.834    -895.530     637.705
  H       71.937    -891.850     636.044
  H       73.620    -893.060     634.672
  H       74.106    -896.710     634.937
  H       73.759    -894.510     632.804
  H       75.447    -895.870     631.599
  H       77.001    -896.050     633.909
  H       77.341    -893.580     633.925
  H       77.408    -894.240     632.274
  P       75.155    -898.600     631.715
  C       77.705    -898.930     631.319
  O       76.457    -899.530     631.717
  O       74.830    -898.040     630.367
  O       73.987    -899.580     632.221
  H       73.549    -900.000     631.445
  H       78.484    -899.662     631.367
  H       77.937    -898.119     631.977
  H       77.621    -898.564     630.317

 6  7  8  9  10  11  12  13  14  15  16  27  31  32  33  34  35 0
 6-311+G(2d,p)
 ****
 36  37 0
 6-311+G(2d,p)
 ****
 1  2  3  4  5  17  18  19  20  21  22  23  24  25 0
 3-21G
 ****
 26  28  29  30  38  39  40  41  42  43  44  45 0
 3-21G
 ****


