%nproc=1
%NoSave
%Mem=1900MB
#P OB98/GEN NMR

erre ene a

0 1
  C      -86.724      92.177     391.112
  O      -85.902      92.483     389.998
  H      -86.917      93.098     391.667
  H      -86.211      91.468     391.769
  H      -87.675      91.755     390.777
  P      -85.689      91.315     388.923
  C      -84.565      92.861     387.120
  O      -84.449      91.740     387.993
  C      -83.205      93.539     386.946
  O      -82.795      94.172     388.172
  C      -82.067      92.581     386.625
  O      -82.133      92.073     385.308
  C      -80.866      93.479     386.881
  O      -80.557      94.285     385.742
  C      -81.356      94.359     388.064
  N      -80.659      94.046     389.299
  C      -79.383      94.620     389.434
  O      -78.950      95.349     388.546
  N      -78.646      94.319     390.542
  C      -79.120      93.499     391.429
  N      -78.310      93.213     392.495
  C      -80.450      92.871     391.329
  C      -81.162      93.184     390.241
  O      -86.954      91.501     387.956
  O      -85.560      89.946     389.506
  H      -79.638      94.605     385.873
  H      -87.086      92.417     387.656
  H      -80.803      92.196     392.109
  H      -82.155      92.767     390.097
  H      -81.197      95.417     387.840
  H      -79.971      92.894     387.113
  H      -82.058      91.761     387.363
  H      -83.308      94.315     386.167
  H      -77.389      93.631     392.496
  H      -85.306      93.579     387.509
  H      -78.538      92.537     393.203
  H      -84.945      92.499     386.159
  P      -81.921      90.529     384.993
  C      -84.004      90.546     383.457
  O      -82.613      90.239     383.564
  O      -82.357      89.589     386.076
  O      -80.367      90.427     384.636
  H      -80.089      90.969     383.882
  H      -84.346      90.312     382.470
  H      -84.155      91.588     383.650
  H      -84.553      89.968     384.171

 6  7  8  9  10  11  12  13  14  15  16  26  30  31  32  33  35 0
 6-311+G(2d,p)
 ****
 37  38 0
 6-311+G(2d,p)
 ****
 1  2  3  4  5  17  18  19  20  21  22  23  24  25 0
 3-21G
 ****
 27  28  29  34  36  39  40  41  42  43  44  45  46 0
 3-21G
 ****


