%nproc=1
%NoSave
%Mem=1900MB
#P OB98/GEN NMR

erre ene a

0 1
  C      476.200     502.761    -687.598
  O      475.230     502.457    -686.614
  H      477.020     503.308    -687.124
  H      475.770     503.388    -688.383
  H      476.600     501.839    -688.034
  P      473.883     501.721    -687.069
  C      474.130     499.418    -685.910
  O      474.216     500.154    -687.127
  C      473.648     497.997    -686.179
  O      472.272     498.002    -686.607
  C      474.426     497.272    -687.274
  O      475.691     496.855    -686.797
  C      473.453     496.150    -687.603
  O      473.524     495.097    -686.627
  C      472.093     496.890    -687.516
  N      471.592     497.346    -688.810
  C      470.708     496.479    -689.462
  O      470.409     495.397    -688.961
  N      470.208     496.858    -690.683
  C      470.518     498.015    -691.190
  N      469.985     498.338    -692.394
  C      471.415     498.970    -690.512
  C      471.923     498.569    -689.342
  O      473.220     502.257    -688.304
  O      472.927     501.839    -685.792
  H      472.898     494.411    -686.927
  H      472.353     502.621    -685.869
  H      471.640     499.923    -690.959
  H      472.592     499.209    -688.779
  H      471.335     496.234    -687.071
  H      473.659     495.698    -688.574
  H      474.521     497.916    -688.157
  H      473.693     497.440    -685.229
  H      469.358     497.654    -692.813
  H      473.414     499.946    -685.270
  H      470.027     499.256    -692.799
  H      475.098     499.401    -685.397
  P      477.044     497.303    -687.526
  C      478.173     498.425    -685.505
  O      477.539     498.629    -686.761
  O      476.954     497.436    -689.010
  O      478.108     496.208    -687.045
  H      477.982     495.364    -687.549
  H      478.458     499.370    -685.092
  H      479.044     497.818    -685.639
  H      477.495     497.934    -684.839

 6  7  8  9  10  11  12  13  14  15  16  26  30  31  32  33  35 0
 6-311+G(2d,p)
 ****
 37  38 0
 6-311+G(2d,p)
 ****
 1  2  3  4  5  17  18  19  20  21  22  23  24  25 0
 3-21G
 ****
 27  28  29  34  36  39  40  41  42  43  44  45  46 0
 3-21G
 ****


