%nproc=1
%NoSave
%Mem=1900MB
#P OB98/GEN NMR

erre ene a

0 1
  C       66.778     -85.979      87.249
  O       66.548     -87.265      86.659
  P       66.681     -88.558      87.595
  C       66.011     -91.053      87.274
  O       66.528     -89.869      86.684
  C       65.777     -92.126      86.207
  O       64.868     -91.673      85.184
  C       67.040     -92.542      85.470
  O       67.787     -93.496      86.211
  C       66.455     -93.185      84.222
  O       66.019     -94.525      84.522
  C       65.247     -92.288      83.931
  N       64.800     -90.913      79.017
  C       64.461     -92.047      79.671
  N       64.629     -92.345      80.977
  C       65.198     -91.319      81.628
  C       65.598     -90.105      81.097
  C       65.379     -89.914      79.723
  N       65.724     -88.757      79.064
  N       66.156     -89.303      82.071
  C       66.078     -90.017      83.176
  N       65.516     -91.245      82.958
  O       65.319     -88.536      88.437
  O       67.876     -88.538      88.489
  H       65.766     -94.938      83.675
  H       65.481     -88.878      89.336
  H       63.994     -92.817      79.065
  H       66.411     -89.687      84.151
  H       64.383     -92.857      83.567
  H       67.181     -93.262      83.409
  H       67.642     -91.666      85.196
  H       65.333     -93.001      86.700
  H       65.077     -90.834      87.799
  H       65.510     -88.682      78.083
  H       66.136     -88.000      79.590
  H       66.715     -91.405      88.036
  P       69.042     -92.954      87.050
  C       69.975     -94.124      89.173
  O       69.644     -94.232      87.803
  O       68.352     -92.103      88.217
  O       70.007     -92.140      86.259
  H       68.939     -91.371      88.490
  H       70.074     -95.129      89.590
  H       69.199     -93.590      89.726
  H       70.929     -93.600      89.282
  H       66.654     -85.219      86.506
  H       67.774     -85.938      87.638
  H       66.078     -85.820      88.042

 3  4  5  6  7  8  9  10  11  12  22  25  29  30  31  32 0
 6-311+G(2d,p)
 ****
 33  36  37 0
 6-311+G(2d,p)
 ****
 1  2  13  14  15  16  17  18  19  20  21  23  24  26 0
 3-21G
 ****
 27  28  34  35  38  39  40  41  42  43  44  45  46  47  48 0
 3-21G
 ****


