%nproc=1
%NoSave
%Mem=1900MB
#P OB98/GEN NMR

erre ene a

0 1
  C       49.933    -140.462       1.384
  O       50.165    -141.773       1.915
  P       50.971    -142.819       1.009
  C       53.467    -142.736       0.283
  O       52.531    -142.673       1.348
  C       54.666    -143.603       0.678
  O       55.486    -142.956       1.678
  C       54.276    -144.951       1.268
  O       53.991    -145.906       0.257
  C       55.557    -145.334       1.995
  O       56.511    -145.866       1.055
  C       56.036    -143.984       2.540
  N       57.643    -143.073       7.249
  C       58.360    -143.251       6.083
  N       59.705    -143.169       6.185
  N       57.810    -143.490       4.921
  C       56.459    -143.529       4.967
  C       55.636    -143.368       6.058
  C       56.258    -143.120       7.341
  O       55.674    -142.967       8.409
  N       54.317    -143.483       5.710
  C       54.337    -143.691       4.408
  N       55.615    -143.745       3.911
  O       50.866    -142.176      -0.456
  O       50.426    -144.208       1.042
  H       57.306    -146.106       1.570
  H       50.917    -142.879      -1.129
  H       58.118    -142.897       8.118
  H       53.459    -143.809       3.784
  H       57.127    -143.886       2.516
  H       55.391    -146.107       2.749
  H       60.191    -142.937       7.037
  H       53.451    -144.848       1.985
  H       60.247    -143.264       5.335
  H       55.278    -143.767      -0.218
  H       53.808    -141.732       0.015
  H       52.967    -143.126      -0.608
  P       52.678    -146.811       0.429
  C       50.455    -146.995      -0.898
  O       51.598    -146.223      -0.594
  O       52.131    -146.372       1.867
  O       52.919    -148.280       0.354
  H       51.681    -147.123       2.298
  H       49.760    -146.380      -1.475
  H       49.955    -147.328       0.015
  H       50.738    -147.862      -1.503
  H       49.387    -139.880       2.097
  H       49.368    -140.539       0.479
  H       50.871    -139.989       1.180

 3  4  5  6  7  8  9  10  11  12  23  26  30  31 0
 6-311+G(2d,p)
 ****
 33  35  36  37  38 0
 6-311+G(2d,p)
 ****
 1  2  13  14  15  16  17  18  19  20  21  22  24  25 0
 3-21G
 ****
 27  28  29  32  34  39  40  41  42  43  44  45  46  47  48  49 0
 3-21G
 ****


