%nproc=1
%NoSave
%Mem=1900MB
#P OB98/GEN NMR

erre ene a

0 1
  C     -440.606    -437.901     419.884
  O     -440.320    -437.403     418.576
  P     -441.350    -437.714     417.397
  C     -441.000    -435.430     416.090
  O     -440.976    -436.849     416.101
  C     -440.909    -434.943     414.632
  O     -439.615    -435.250     414.074
  C     -441.964    -435.573     413.720
  O     -443.187    -434.859     413.752
  C     -441.266    -435.528     412.370
  O     -441.339    -434.200     411.817
  C     -439.813    -435.877     412.776
  N     -439.436    -437.301     412.864
  C     -439.573    -438.134     411.749
  O     -439.988    -437.757     410.655
  N     -439.176    -439.436     411.915
  C     -438.530    -439.951     413.002
  O     -438.143    -441.108     413.074
  C     -438.270    -438.996     414.097
  C     -438.746    -437.748     413.986
  O     -442.720    -437.081     417.904
  O     -441.491    -439.171     417.075
  H     -440.835    -433.621     412.409
  H     -443.387    -437.771     418.053
  H     -439.333    -440.069     411.147
  H     -437.726    -439.348     414.957
  H     -438.555    -437.032     414.787
  H     -439.102    -435.411     412.077
  H     -441.752    -436.183     411.659
  H     -442.110    -436.623     413.990
  H     -441.020    -433.849     414.639
  H     -440.166    -435.038     416.674
  H     -441.924    -435.080     416.560
  P     -444.552    -435.638     414.047
  C     -445.625    -434.630     416.151
  O     -445.525    -434.566     414.741
  O     -444.417    -436.951     414.761
  O     -445.215    -435.818     412.591
  H     -444.993    -436.706     412.223
  H     -446.180    -433.760     416.503
  H     -444.628    -434.615     416.599
  H     -446.159    -435.531     416.451
  H     -439.825    -437.609     420.555
  H     -440.669    -438.969     419.853
  H     -441.537    -437.498     420.223

 3  4  5  6  7  8  9  10  11  12  13  23  28  29  30  31  32 0
 6-311+G(2d,p)
 ****
 33  34 0
 6-311+G(2d,p)
 ****
 1  2  14  15  16  17  18  19  20  21  22  24  25  26  27 0
 3-21G
 ****
 35  36  37  38  39  40  41  42  43  44  45 0
 3-21G
 ****


