%nproc=1
%NoSave
%Mem=1900MB
#P OB98/GEN NMR

erre ene a

0 1
  C     -463.756    -950.790    1007.852
  O     -463.507    -949.815    1008.856
  H     -464.077    -951.713    1008.342
  H     -462.841    -950.993    1007.286
  H     -464.545    -950.444    1007.190
  P     -462.980    -948.385    1008.339
  C     -465.219    -947.347    1009.125
  O     -463.797    -947.321    1009.218
  C     -465.823    -946.116    1009.784
  O     -465.716    -946.208    1011.213
  C     -465.151    -944.802    1009.382
  O     -465.662    -944.319    1008.154
  C     -465.569    -943.893    1010.547
  O     -466.907    -943.416    1010.320
  C     -465.549    -944.866    1011.752
  N     -463.359    -943.013    1016.007
  C     -464.507    -942.720    1015.408
  N     -465.008    -943.216    1014.231
  C     -464.172    -944.112    1013.708
  C     -462.941    -944.515    1014.214
  C     -462.536    -943.939    1015.433
  N     -461.330    -944.258    1016.042
  N     -462.356    -945.455    1013.393
  C     -463.238    -945.654    1012.441
  N     -464.344    -944.847    1012.557
  O     -462.982    -948.180    1006.865
  O     -461.523    -948.345    1009.019
  H     -467.077    -942.729    1010.998
  H     -461.558    -948.704    1009.921
  H     -465.133    -941.992    1015.920
  H     -463.139    -946.402    1011.643
  H     -466.385    -944.687    1012.431
  H     -464.925    -943.020    1010.651
  H     -464.064    -944.895    1009.382
  H     -466.898    -946.094    1009.537
  H     -465.612    -948.251    1009.599
  H     -461.053    -943.659    1016.793
  H     -460.688    -944.830    1015.544
  H     -465.481    -947.386    1008.061
  P     -464.698    -943.741    1007.009
  C     -464.029    -945.847    1005.679
  O     -464.906    -944.733    1005.766
  O     -463.288    -943.527    1007.451
  O     -465.414    -942.400    1006.542
  H     -464.784    -941.849    1006.037
  H     -464.272    -946.425    1004.812
  H     -464.136    -946.454    1006.554
  H     -463.019    -945.501    1005.606

 6  7  8  9  10  11  12  13  14  15  25  28  32  33  34  35 0
 6-311+G(2d,p)
 ****
 36  39  40 0
 6-311+G(2d,p)
 ****
 1  2  3  4  5  16  17  18  19  20  21  22  23  24 0
 3-21G
 ****
 26  27  29  30  31  37  38  41  42  43  44  45  46  47 0
 3-21G
 ****
 48 0
 3-21G
 ****


