%nproc=1
%NoSave
%Mem=1900MB
#P OB98/GEN NMR

erre ene a

0 1
  C      406.420    -651.712    -223.282
  O      406.527    -650.448    -223.906
  H      407.118    -652.400    -223.764
  H      405.406    -652.098    -223.394
  H      406.675    -651.636    -222.221
  P      405.654    -649.255    -223.287
  C      407.469    -647.455    -222.838
  O      406.396    -647.888    -223.677
  C      407.629    -645.939    -222.911
  O      408.015    -645.564    -224.268
  C      406.360    -645.153    -222.554
  O      406.758    -643.951    -221.879
  C      405.803    -644.767    -223.923
  O      404.931    -643.641    -223.860
  C      407.112    -644.513    -224.675
  N      405.178    -641.842    -228.476
  C      405.263    -641.550    -227.132
  N      404.763    -640.362    -226.726
  N      405.808    -642.353    -226.251
  C      406.299    -643.500    -226.791
  C      406.267    -643.905    -228.104
  C      405.643    -643.014    -229.065
  O      405.512    -643.224    -230.268
  N      406.846    -645.141    -228.248
  C      407.222    -645.469    -227.033
  N      406.915    -644.510    -226.107
  O      405.924    -649.400    -221.718
  O      404.193    -649.295    -223.609
  H      405.477    -642.854    -223.624
  H      405.229    -649.944    -221.300
  H      404.739    -641.186    -229.105
  H      407.729    -646.398    -226.759
  H      407.572    -643.553    -224.410
  H      405.256    -645.609    -224.352
  H      404.374    -639.675    -227.355
  H      405.643    -645.702    -221.940
  H      404.859    -640.110    -225.750
  H      408.468    -645.651    -222.259
  H      408.397    -647.936    -223.181
  H      407.261    -647.769    -221.812
  P      406.352    -643.786    -220.336
  C      408.738    -642.794    -220.037
  O      407.372    -642.744    -219.662
  O      406.805    -645.185    -219.700
  O      404.906    -643.514    -220.098
  H      406.249    -645.393    -218.924
  H      409.282    -642.042    -219.504
  H      408.826    -642.619    -221.089
  H      409.138    -643.758    -219.801

 6  7  8  9  10  11  12  13  14  15  26  29  33  34 0
 6-311+G(2d,p)
 ****
 36  38  39  40  41 0
 6-311+G(2d,p)
 ****
 1  2  3  4  5  16  17  18  19  20  21  22  23  24  25 0
 3-21G
 ****
 27  28  30  31  32  35  37  42  43  44  45  46  47 0
 3-21G
 ****
 48  49 0
 3-21G
 ****


