%nproc=1
%NoSave
%Mem=1900MB
#P OB98/GEN NMR

erre ene a

0 1
  C      354.251    -290.709    -460.980
  O      354.496    -291.897    -461.732
  P      355.934    -292.046    -462.434
  C      355.370    -290.938    -464.741
  O      356.035    -290.831    -463.485
  C      356.299    -290.467    -465.874
  O      355.584    -290.560    -467.153
  C      356.816    -289.029    -465.726
  O      358.161    -289.026    -466.222
  C      355.908    -288.243    -466.660
  O      356.499    -287.012    -467.060
  C      355.701    -289.266    -467.780
  N      354.536    -288.964    -468.615
  C      354.725    -288.092    -469.684
  O      355.793    -287.522    -469.902
  N      353.627    -287.863    -470.469
  C      352.364    -288.345    -470.251
  O      351.422    -288.112    -470.989
  C      352.200    -289.169    -469.039
  C      353.277    -289.437    -468.291
  O      355.708    -293.343    -463.341
  O      357.058    -292.142    -461.450
  H      354.819    -293.401    -463.723
  H      357.332    -287.199    -467.539
  H      353.756    -287.261    -471.274
  H      351.204    -289.528    -468.803
  H      353.183    -290.021    -467.379
  H      356.583    -289.296    -468.435
  H      354.962    -288.026    -466.154
  H      356.798    -288.683    -464.699
  H      357.140    -291.169    -465.931
  H      354.475    -290.310    -464.740
  H      355.047    -291.975    -464.891
  P      359.366    -288.896    -465.157
  C      360.058    -286.413    -465.670
  O      359.482    -287.345    -464.768
  O      360.624    -289.119    -466.121
  O      359.318    -289.872    -464.022
  H      360.571    -288.596    -466.946
  H      359.829    -285.406    -465.323
  H      359.668    -286.551    -466.681
  H      361.150    -286.546    -465.680
  H      353.263    -290.743    -460.572
  H      354.344    -289.856    -461.620
  H      354.963    -290.637    -460.185

 3  4  5  6  7  8  9  10  11  12  13  24  28  29  30  31  32 0
 6-311+G(2d,p)
 ****
 33  34 0
 6-311+G(2d,p)
 ****
 1  2  14  15  16  17  18  19  20  21  22  23  25  26  27 0
 3-21G
 ****
 35  36  37  38  39  40  41  42  43  44  45 0
 3-21G
 ****


