%nproc=1
%NoSave
%Mem=1900MB
#P OB98/GEN NMR

erre ene a

0 1
  C     -664.451    -144.397     259.163
  O     -664.241    -143.027     258.901
  H     -665.454    -144.668     258.823
  H     -664.384    -144.577     260.240
  H     -663.724    -145.024     258.640
  P     -662.743    -142.471     258.864
  C     -662.814    -141.391     261.209
  O     -662.207    -142.376     260.378
  C     -662.237    -141.419     262.628
  O     -662.526    -142.690     263.248
  C     -660.711    -141.253     262.642
  O     -660.267    -139.912     262.658
  C     -660.335    -141.973     263.935
  O     -660.378    -141.078     265.061
  C     -661.408    -143.056     264.068
  N     -660.233    -147.802     265.570
  C     -660.539    -146.699     266.346
  N     -660.481    -146.882     267.687
  N     -660.845    -145.530     265.847
  C     -660.765    -145.478     264.497
  C     -660.453    -146.501     263.626
  C     -660.186    -147.809     264.185
  O     -659.930    -148.819     263.544
  N     -660.428    -146.066     262.324
  C     -660.632    -144.765     262.419
  N     -660.919    -144.377     263.706
  O     -662.923    -140.930     258.466
  O     -661.820    -143.160     257.905
  H     -661.220    -140.576     265.018
  H     -662.151    -140.630     257.951
  H     -660.034    -148.680     266.013
  H     -660.628    -144.072     261.588
  H     -661.780    -143.126     265.099
  H     -659.312    -142.361     263.881
  H     -660.168    -147.731     268.124
  H     -660.258    -141.796     261.807
  H     -660.514    -146.052     268.287
  H     -662.730    -140.645     263.231
  H     -663.880    -141.625     261.238
  H     -662.704    -140.399     260.767
  P     -659.007    -139.452     261.786
  C     -657.390    -139.296     263.852
  O     -657.676    -139.841     262.587
  O     -659.046    -137.858     261.896
  O     -659.001    -139.923     260.372
  H     -659.459    -137.473     261.101
  H     -656.459    -139.687     264.206
  H     -658.170    -139.556     264.537
  H     -657.324    -138.231     263.775

 6  7  8  9  10  11  12  13  14  15  26  29  33  34 0
 6-311+G(2d,p)
 ****
 36  38  39  40  41 0
 6-311+G(2d,p)
 ****
 1  2  3  4  5  16  17  18  19  20  21  22  23  24  25 0
 3-21G
 ****
 27  28  30  31  32  35  37  42  43  44  45  46  47 0
 3-21G
 ****
 48  49 0
 3-21G
 ****


