%nproc=1
%NoSave
%Mem=1900MB
#P OB98/GEN NMR

erre ene a

0 1
  C     -120.791     157.754     148.538
  O     -121.140     156.414     148.247
  H     -120.014     158.069     147.835
  H     -120.391     157.825     149.551
  H     -121.654     158.414     148.427
  P     -122.360     155.743     149.039
  C     -124.131     155.543     147.169
  O     -123.185     154.856     147.982
  C     -124.591     154.655     146.008
  O     -123.435     154.288     145.215
  C     -125.281     153.360     146.456
  O     -126.347     153.060     145.552
  C     -124.188     152.317     146.327
  O     -124.712     151.005     146.121
  C     -123.385     152.849     145.142
  N     -120.415     148.777     144.724
  C     -121.776     148.910     144.541
  N     -122.456     147.786     144.219
  N     -122.421     150.039     144.669
  C     -121.611     151.086     144.972
  C     -120.250     151.086     145.176
  C     -119.554     149.823     145.053
  O     -118.349     149.640     145.217
  N     -119.791     152.345     145.487
  C     -120.874     153.102     145.468
  N     -122.003     152.383     145.176
  O     -123.193     156.694     149.841
  O     -121.669     154.642     149.971
  H     -125.106     150.718     146.973
  H     -121.644     154.935     150.901
  H     -119.970     147.880     144.625
  H     -120.894     154.165     145.669
  H     -123.802     152.534     144.175
  H     -123.579     152.303     147.241
  H     -122.023     146.885     144.081
  H     -125.669     153.430     147.471
  H     -123.453     147.858     144.053
  H     -125.251     155.245     145.358
  H     -123.652     156.446     146.775
  H     -124.990     155.836     147.783
  P     -127.569     152.148     146.059
  C     -129.073     153.412     147.717
  O     -128.834     153.092     146.353
  O     -127.235     151.184     147.153
  O     -128.009     151.371     144.725
  H     -128.309     150.472     144.970
  H     -129.935     154.042     147.790
  H     -128.223     153.924     148.118
  H     -129.241     152.512     148.270

 6  7  8  9  10  11  12  13  14  15  26  29  33  34 0
 6-311+G(2d,p)
 ****
 36  38  39  40  41 0
 6-311+G(2d,p)
 ****
 1  2  3  4  5  16  17  18  19  20  21  22  23  24  25 0
 3-21G
 ****
 27  28  30  31  32  35  37  42  43  44  45  46  47 0
 3-21G
 ****
 48  49 0
 3-21G
 ****


