%nproc=1
%NoSave
%Mem=1900MB
#P OB98/GEN NMR

erre ene a

0 1
  C      -87.844      57.620     224.976
  O      -88.496      57.596     226.230
  H      -86.905      57.063     225.060
  H      -87.611      58.650     224.690
  H      -88.461      57.146     224.206
  P      -89.972      58.211     226.343
  C      -89.102      60.377     227.456
  O      -89.814      59.807     226.360
  C      -88.778      61.839     227.163
  O      -87.930      61.937     225.994
  C      -90.005      62.694     226.854
  O      -90.715      63.016     228.037
  C      -89.359      63.881     226.156
  O      -88.814      64.805     227.109
  C      -88.235      63.193     225.347
  N      -88.592      62.988     223.942
  C      -87.552      63.065     223.017
  O      -86.388      63.324     223.330
  N      -87.904      62.860     221.709
  C      -89.175      62.706     221.234
  O      -89.444      62.622     220.038
  C      -90.236      62.659     222.247
  C      -89.902      62.799     223.536
  O      -90.825      57.648     227.430
  O      -90.606      57.930     224.897
  H      -88.316      64.270     227.761
  H      -91.241      57.188     224.961
  H      -87.167      62.924     221.022
  H      -91.254      62.525     221.911
  H      -90.672      62.769     224.297
  H      -87.322      63.796     225.383
  H      -90.068      64.433     225.542
  H      -90.654      62.174     226.141
  H      -88.221      62.250     228.019
  H      -88.172      59.814     227.599
  H      -89.715      60.287     228.363
  P      -92.287      63.302     227.970
  C      -91.910      65.831     228.263
  O      -92.485      64.809     227.453
  O      -93.055      62.950     229.203
  O      -92.784      62.427     226.724
  H      -93.442      61.773     227.027
  H      -92.104      66.787     227.823
  H      -90.853      65.679     228.333
  H      -92.341      65.795     229.242

 6  7  8  9  10  11  12  13  14  15  16  26  31  32  33  34  35 0
 6-311+G(2d,p)
 ****
 36  37 0
 6-311+G(2d,p)
 ****
 1  2  3  4  5  17  18  19  20  21  22  23  24  25 0
 3-21G
 ****
 27  28  29  30  38  39  40  41  42  43  44  45 0
 3-21G
 ****


