%nproc=1
%NoSave
%Mem=1900MB
#P OB98/GEN NMR

erre ene a

0 1
  C     -446.496      65.395     276.369
  O     -445.597      64.684     277.194
  H     -447.284      64.711     276.045
  H     -445.979      65.776     275.485
  H     -446.955      66.222     276.916
  P     -444.434      65.493     277.943
  C     -445.786      65.901     280.098
  O     -444.649      65.274     279.517
  C     -446.457      64.948     281.083
  O     -447.194      63.932     280.364
  C     -445.479      64.189     281.969
  O     -444.955      65.013     282.993
  C     -446.355      63.044     282.446
  O     -447.178      63.445     283.548
  C     -447.216      62.752     281.198
  N     -446.742      61.578     280.465
  C     -446.731      60.378     281.168
  O     -447.103      60.270     282.335
  N     -446.216      59.302     280.499
  C     -445.599      59.343     279.282
  O     -444.936      58.414     278.831
  C     -445.695      60.620     278.561
  C     -446.242      61.667     279.182
  O     -444.256      66.913     277.518
  O     -443.120      64.625     277.640
  H     -442.606      65.059     276.934
  H     -447.785      62.696     283.715
  H     -446.166      58.435     281.017
  H     -445.279      60.676     277.562
  H     -446.293      62.631     278.684
  H     -448.262      62.586     281.485
  H     -445.758      62.189     282.773
  H     -444.664      63.783     281.358
  H     -447.170      65.521     281.689
  H     -446.492      66.159     279.302
  H     -445.467      66.819     280.602
  P     -443.462      64.791     283.524
  C     -442.882      67.157     282.710
  O     -442.800      66.228     283.783
  O     -442.630      63.856     282.712
  O     -443.661      64.222     285.009
  H     -443.118      63.417     285.114
  H     -442.410      68.074     282.995
  H     -443.910      67.342     282.476
  H     -442.388      66.754     281.851

 6  7  8  9  10  11  12  13  14  15  16  27  31  32  33  34  35 0
 6-311+G(2d,p)
 ****
 36  37 0
 6-311+G(2d,p)
 ****
 1  2  3  4  5  17  18  19  20  21  22  23  24  25 0
 3-21G
 ****
 26  28  29  30  38  39  40  41  42  43  44  45 0
 3-21G
 ****


