%nproc=1
%NoSave
%Mem=1900MB
#P OB98/GEN NMR

erre ene a

0 1
  C      183.676       0.375     101.139
  O      182.758       1.114     101.920
  H      183.124      -0.365     100.555
  H      184.389      -0.145     101.785
  H      184.212       1.039     100.454
  P      183.371       2.275     102.842
  C      182.515       4.183     101.297
  O      183.636       3.527     101.877
  C      182.624       4.137      99.775
  O      182.630       2.761      99.327
  C      181.455       4.794      99.055
  O      181.556       6.206      99.034
  C      181.564       4.157      97.679
  O      182.526       4.837      96.862
  C      182.050       2.740      98.003
  N      179.350      -0.284      94.900
  C      180.423       0.508      94.680
  N      181.093       1.275      95.566
  C      180.569       1.145      96.796
  C      179.481       0.374      97.173
  C      178.858      -0.372      96.157
  N      177.753      -1.159      96.375
  N      179.217       0.532      98.518
  C      180.131       1.375      98.951
  N      180.973       1.770      97.946
  O      184.839       1.733     103.176
  O      182.595       2.577     104.080
  H      182.117       5.688      96.609
  H      184.847       1.339     104.069
  H      180.782       0.538      93.655
  H      180.222       1.733      99.968
  H      182.830       2.400      97.312
  H      180.607       4.186      97.159
  H      180.507       4.482      99.513
  H      183.575       4.598      99.478
  H      182.496       5.228     101.627
  H      181.601       3.686     101.635
  H      177.316      -1.610      95.588
  H      177.309      -1.140      97.284
  P      180.195       7.049      98.948
  C      180.431       9.107     100.533
  O      179.989       7.765     100.366
  O      179.050       5.929      98.916
  O      180.108       7.965      97.774
  H      178.318       6.222      98.342
  H      180.219       9.431     101.531
  H      179.921       9.740      99.837
  H      181.485       9.160     100.357

 6  7  8  9  10  11  12  13  14  15  25  28  32  33  34  35 0
 6-311+G(2d,p)
 ****
 36  37  40 0
 6-311+G(2d,p)
 ****
 1  2  3  4  5  16  17  18  19  20  21  22  23  24 0
 3-21G
 ****
 26  27  29  30  31  38  39 41  42  43  44  45  46  47  48 0
 3-21G
 ****


