%nproc=1
%NoSave
%Mem=1900MB
#P OB98/GEN NMR

erre ene a

0 1
  C     -133.785    -241.095      25.820
  O     -133.824    -242.037      24.772
  H     -133.028    -241.409      26.544
  H     -134.757    -241.062      26.320
  H     -133.528    -240.098      25.453
  P     -134.503    -241.618      23.385
  C     -132.152    -240.750      22.774
  O     -133.553    -240.529      22.685
  C     -131.490    -240.775      21.395
  O     -130.054    -240.864      21.532
  C     -131.912    -241.991      20.570
  O     -133.131    -241.850      19.863
  C     -130.736    -242.138      19.610
  O     -130.905    -241.294      18.459
  C     -129.549    -241.667      20.452
  N     -125.348    -244.541      20.010
  C     -125.807    -243.540      19.177
  N     -125.086    -243.318      18.057
  N     -126.884    -242.840      19.418
  C     -127.555    -243.238      20.525
  C     -127.206    -244.225      21.419
  C     -125.980    -244.959      21.172
  O     -125.534    -245.860      21.874
  N     -128.132    -244.342      22.427
  C     -129.075    -243.482      22.101
  N     -128.757    -242.768      20.969
  O     -135.765    -240.737      23.835
  O     -134.926    -242.757      22.509
  H     -130.144    -241.425      17.867
  H     -136.458    -240.776      23.151
  H     -124.498    -245.028      19.790
  H     -129.989    -243.315      22.662
  H     -128.872    -241.030      19.868
  H     -130.644    -243.163      19.237
  H     -124.320    -243.907      17.772
  H     -131.953    -242.884      21.201
  H     -125.527    -242.789      17.302
  H     -131.708    -239.836      20.872
  H     -132.016    -241.713      23.269
  H     -131.687    -239.990      23.407
  P     -133.663    -243.044      18.939
  C     -134.639    -244.967      20.396
  O     -133.503    -244.397      19.782
  O     -132.528    -243.156      17.816
  O     -135.012    -242.825      18.344
  H     -132.792    -242.661      17.019
  H     -134.355    -245.859      20.914
  H     -135.367    -245.205      19.649
  H     -135.057    -244.269      21.091

 6  7  8  9  10  11  12  13  14  15  26  29  33  34 0
 6-311+G(2d,p)
 ****
 36  38  39  40  41 0
 6-311+G(2d,p)
 ****
 1  2  3  4  5  16  17  18  19  20  21  22  23  24  25 0
 3-21G
 ****
 27  28  30  31  32  35  37  42  43  44  45  46  47 0
 3-21G
 ****
 48  49 0
 3-21G
 ****


