%nproc=1
%NoSave
%Mem=1900MB
#P OB98/GEN NMR

erre ene a

0 1
  C     -156.300     -59.276     341.407
  O     -157.266     -60.193     340.922
  H     -156.401     -58.337     340.854
  H     -155.288     -59.658     341.251
  H     -156.466     -59.081     342.468
  P     -157.217     -61.699     341.465
  C     -156.366     -62.746     339.255
  O     -156.075     -62.429     340.615
  C     -155.135     -63.345     338.579
  O     -154.039     -62.412     338.624
  C     -154.632     -64.611     339.261
  O     -155.453     -65.718     338.945
  C     -153.211     -64.676     338.729
  O     -153.176     -65.220     337.406
  C     -152.814     -63.183     338.731
  N     -152.053     -62.796     339.911
  C     -150.675     -63.032     339.859
  O     -150.166     -63.528     338.857
  N     -149.915     -62.713     340.959
  C     -150.473     -62.196     342.008
  N     -149.665     -61.903     343.061
  C     -151.922     -61.919     342.098
  C     -152.643     -62.245     341.027
  O     -158.520     -62.442     341.513
  O     -156.556     -61.556     342.918
  H     -152.232     -65.265     337.161
  H     -157.243     -61.413     343.594
  H     -152.343     -61.478     342.995
  H     -153.718     -62.077     341.011
  H     -152.216     -62.945     337.840
  H     -152.578     -65.298     339.360
  H     -154.584     -64.462     340.348
  H     -155.376     -63.534     337.524
  H     -148.681     -62.123     342.958
  H     -156.656     -61.814     338.760
  H     -149.974     -61.421     343.893
  H     -157.208     -63.449     339.194
  P     -155.540     -66.981     339.928
  C     -153.785     -68.186     338.464
  O     -154.128     -67.736     339.776
  O     -156.748     -67.843     339.765
  O     -155.430     -66.312     341.386
  H     -156.265     -65.855     341.636
  H     -152.831     -68.669     338.491
  H     -153.742     -67.348     337.800
  H     -154.525     -68.877     338.119

 6  7  8  9  10  11  12  13  14  15  16  26  30  31  32  33  35 0
 6-311+G(2d,p)
 ****
 37  38 0
 6-311+G(2d,p)
 ****
 1  2  3  4  5  17  18  19  20  21  22  23  24  25 0
 3-21G
 ****
 27  28  29  34  36  39  40  41  42  43  44  45  46 0
 3-21G
 ****


