%nproc=1
%NoSave
%Mem=1900MB
#P OB98/GEN NMR

erre ene a

0 1
  C      450.752     391.571    1200.290
  O      449.965     392.433    1199.498
  H      451.672     391.339    1199.750
  H      450.215     390.643    1200.493
  H      451.015     392.069    1201.227
  P      448.546     392.869    1200.102
  C      449.616     394.454    1201.852
  O      448.863     393.266    1201.630
  C      449.336     395.009    1203.251
  O      448.054     395.651    1203.303
  C      449.327     393.952    1204.346
  O      450.650     393.670    1204.783
  C      448.534     394.663    1205.422
  O      449.385     395.573    1206.141
  C      447.487     395.456    1204.617
  N      442.705     395.226    1206.470
  C      443.812     395.834    1206.941
  N      445.073     395.805    1206.421
  C      445.114     395.073    1205.297
  C      444.051     394.387    1204.709
  C      442.806     394.503    1205.339
  N      441.666     393.875    1204.859
  N      444.477     393.739    1203.570
  C      445.741     394.064    1203.443
  N      446.180     394.833    1204.491
  O      447.421     391.910    1199.897
  O      448.340     394.303    1199.415
  H      449.914     395.046    1206.772
  H      449.184     394.795    1199.389
  H      443.688     396.414    1207.851
  H      446.383     393.778    1202.610
  H      447.316     396.455    1205.044
  H      448.113     393.975    1206.162
  H      448.788     393.041    1204.034
  H      450.089     395.787    1203.454
  H      449.359     395.222    1201.105
  H      440.859     393.844    1205.472
  H      441.770     393.221    1204.089
  H      450.674     394.211    1201.739
  P      450.940     392.534    1205.871
  C      451.778     390.852    1204.116
  O      450.771     391.141    1205.089
  O      450.146     392.669    1207.131
  O      452.517     392.618    1206.136
  H      452.750     392.154    1206.952
  H      451.571     389.908    1203.658
  H      452.735     390.815    1204.593
  H      451.782     391.618    1203.369

 6  7  8  9  10  11  12  13  14  15  25  28  32  33  34  35 0
 6-311+G(2d,p)
 ****
 36  39  40 0
 6-311+G(2d,p)
 ****
 1  2  3  4  5  16  17  18  19  20  21  22  23  24 0
 3-21G
 ****
 26  27  29  30  31  37  38  41  42  43  44  45  46  47 0
 3-21G
 ****
 48 0
 3-21G
 ****


