%nproc=1
%NoSave
%Mem=1900MB
#P OB98/GEN NMR

erre ene a

0 1
  C      192.059      95.491     483.738
  O      193.185      95.336     484.577
  H      191.188      95.708     484.360
  H      191.872      94.568     483.185
  H      192.205      96.320     483.039
  P      194.633      95.176     483.907
  C      195.889      95.916     486.033
  O      195.666      94.870     485.092
  C      196.846      95.434     487.122
  O      198.099      95.023     486.536
  C      197.205      96.509     488.141
  O      196.149      96.741     489.047
  C      198.463      95.914     488.751
  O      198.142      94.942     489.755
  C      199.127      95.238     487.528
  N      200.227      96.038     486.989
  C      201.452      95.911     487.637
  O      201.640      95.168     488.599
  N      202.458      96.718     487.168
  C      202.315      97.715     486.245
  O      203.164      98.570     486.039
  C      201.015      97.760     485.558
  C      200.043      96.943     485.962
  O      195.039      96.271     482.978
  O      194.537      93.768     483.144
  H      194.401      93.930     482.190
  H      197.763      95.447     490.501
  H      203.338      96.663     487.661
  H      200.885      98.487     484.762
  H      199.064      96.980     485.489
  H      199.515      94.248     487.802
  H      199.085      96.680     489.215
  H      197.467      97.440     487.622
  H      196.397      94.561     487.618
  H      194.932      96.190     486.486
  H      196.301      96.786     485.507
  P      195.749      98.236     489.466
  C      193.747      97.270     490.756
  O      194.854      98.167     490.790
  O      195.179      99.072     488.365
  O      197.119      98.866     490.000
  H      197.265      99.728     489.561
  H      193.227      97.310     491.690
  H      194.100      96.274     490.586
  H      193.083      97.552     489.966

 6  7  8  9  10  11  12  13  14  15  16  27  31  32  33  34  35 0
 6-311+G(2d,p)
 ****
 36  37 0
 6-311+G(2d,p)
 ****
 1  2  3  4  5  17  18  19  20  21  22  23  24  25 0
 3-21G
 ****
 26  28  29  30  38  39  40  41  42  43  44  45 0
 3-21G
 ****


