%nproc=1
%NoSave
%Mem=1900MB
#P OB98/GEN NMR

erre ene a

0 1
  C      -59.200     -42.018      88.591
  O      -60.434     -42.110      89.275
  H      -58.551     -41.304      89.103
  H      -58.718     -42.999      88.602
  H      -59.352     -41.710      87.554
  P      -61.448     -40.874      89.128
  C      -63.589     -42.342      89.157
  O      -62.828     -41.338      89.812
  C      -65.007     -42.392      89.724
  O      -64.983     -43.157      90.962
  C      -65.612     -41.013      90.034
  O      -67.001     -41.039      89.688
  C      -65.482     -40.909      91.544
  O      -66.444     -40.032      92.121
  C      -65.656     -42.368      91.960
  N      -66.177     -41.187      96.878
  C      -67.011     -41.052      95.825
  N      -66.813     -41.445      94.550
  C      -65.640     -42.091      94.430
  C      -64.689     -42.312      95.411
  C      -64.988     -41.809      96.689
  N      -64.117     -41.879      97.752
  N      -63.591     -42.962      94.881
  C      -63.864     -43.107      93.599
  N      -65.090     -42.595      93.279
  O      -61.782     -40.890      87.561
  O      -60.921     -39.552      89.574
  H      -66.481     -40.193      93.084
  H      -61.120     -40.361      87.080
  H      -67.956     -40.555      96.029
  H      -63.204     -43.543      92.862
  H      -66.708     -42.675      91.994
  H      -64.482     -40.541      91.802
  H      -65.117     -40.185      89.515
  H      -65.643     -42.942      89.021
  H      -63.110     -43.314      89.314
  H      -64.373     -41.398      98.601
  H      -63.188     -42.240      97.600
  H      -63.616     -42.133      88.083
  P      -67.551     -39.853      88.759
  C      -69.512     -41.533      88.419
  O      -69.067     -40.182      88.359
  O      -66.752     -40.061      87.389
  O      -67.328     -38.488      89.327
  H      -66.587     -39.201      86.960
  H      -70.539     -41.584      88.124
  H      -69.410     -41.898      89.420
  H      -68.921     -42.133      87.759

 6  7  8  9  10  11  12  13  14  15  25  28  32  33  34  35 0
 6-311+G(2d,p)
 ****
 36  39  40 0
 6-311+G(2d,p)
 ****
 1  2  3  4  5  16  17  18  19  20  21  22  23  24 0
 3-21G
 ****
 26  27  29  30  31  37  38  41  42  43  44  45  46  47 0
 3-21G
 ****
 48 0
 3-21G
 ****


