%nproc=1
%NoSave
%Mem=1900MB
#P OB98/GEN NMR

erre ene a

0 1
  C      295.711     340.469     427.011
  O      296.761     339.719     426.430
  H      295.267     341.107     426.241
  H      296.097     341.104     427.812
  H      294.930     339.806     427.405
  P      297.478     338.587     427.308
  C      299.808     339.536     426.727
  O      298.897     339.177     427.762
  C      300.483     340.863     427.074
  O      299.490     341.856     427.419
  C      301.430     340.787     428.264
  O      302.651     340.172     427.913
  C      301.534     342.256     428.643
  O      302.481     342.935     427.801
  C      300.096     342.756     428.379
  N      299.293     342.848     429.600
  C      299.768     343.704     430.588
  O      300.822     344.330     430.490
  N      299.005     343.785     431.722
  C      297.902     343.033     432.000
  O      297.298     343.080     433.071
  C      297.454     342.131     430.929
  C      298.160     342.083     429.796
  O      297.523     337.225     426.695
  O      296.639     338.581     428.675
  H      302.213     342.750     426.881
  H      296.056     337.798     428.697
  H      299.340     344.386     432.459
  H      296.573     341.528     431.102
  H      297.852     341.419     428.994
  H      300.117     343.747     427.905
  H      301.867     342.394     429.671
  H      300.948     340.242     429.090
  H      301.017     341.221     426.179
  H      299.252     339.642     425.789
  H      300.555     338.738     426.615
  P      303.110     338.823     428.643
  C      304.850     340.039     430.094
  O      303.684     339.213     430.087
  O      303.986     337.929     427.834
  O      301.729     338.092     428.995
  H      301.694     337.225     428.541
  H      305.142     340.235     431.104
  H      304.635     340.963     429.600
  H      305.645     339.538     429.583

 6  7  8  9  10  11  12  13  14  15  16  26  31  32  33  34  35 0
 6-311+G(2d,p)
 ****
 36  37 0
 6-311+G(2d,p)
 ****
 1  2  3  4  5  17  18  19  20  21  22  23  24  25 0
 3-21G
 ****
 27  28  29  30  38  39  40  41  42  43  44  45 0
 3-21G
 ****


