%nproc=1
%NoSave
%Mem=1900MB
#P OB98/GEN NMR

erre ene a

0 1
  C      274.266     130.587    -197.116
  O      273.088     129.949    -196.675
  H      274.680     130.017    -197.952
  H      275.003     130.607    -196.307
  H      274.063     131.605    -197.455
  P      272.110     130.736    -195.683
  C      272.788     129.468    -193.540
  O      272.788     130.709    -194.230
  C      273.370     129.630    -192.130
  O      272.820     130.829    -191.529
  C      272.981     128.458    -191.224
  O      273.944     128.227    -190.200
  C      271.688     128.941    -190.587
  O      271.393     128.288    -189.354
  C      271.964     130.436    -190.443
  N      268.298     132.637    -187.670
  C      269.251     131.717    -187.282
  N      269.226     131.336    -185.984
  N      270.133     131.200    -188.098
  C      269.995     131.619    -189.379
  C      269.076     132.507    -189.889
  C      268.128     133.099    -188.969
  O      267.248     133.900    -189.264
  N      269.239     132.676    -191.241
  C      270.250     131.890    -191.550
  N      270.759     131.244    -190.448
  O      270.871     129.736    -195.504
  O      271.662     132.087    -196.153
  H      270.532     128.625    -189.042
  H      270.078     130.225    -195.219
  H      267.661     133.025    -186.997
  H      270.660     131.764    -192.544
  H      272.495     130.643    -189.506
  H      270.866     128.724    -191.272
  H      268.447     131.558    -185.381
  H      272.822     127.535    -191.776
  H      269.696     130.454    -185.762
  H      274.455     129.772    -192.186
  H      273.393     128.775    -194.128
  H      271.778     129.058    -193.496
  P      274.930     126.972    -190.344
  C      273.220     125.218    -189.345
  O      274.084     125.620    -190.383
  O      275.678     126.914    -188.935
  O      275.893     127.072    -191.486
  H      276.632     127.088    -189.049
  H      272.768     124.282    -189.600
  H      272.458     125.957    -189.208
  H      273.778     125.109    -188.439

 6  7  8  9  10  11  12  13  14  15  26  29  33  34 0
 6-311+G(2d,p)
 ****
 36  38  39  40  41 0
 6-311+G(2d,p)
 ****
 1  2  3  4  5  16  17  18  19  20  21  22  23  24  25 0
 3-21G
 ****
 27  28  30  31  32  35  37  42  43  44  45  46  47 0
 3-21G
 ****
 48  49 0
 3-21G
 ****


