%nproc=1
%NoSave
%Mem=1900MB
#P OB98/GEN NMR

erre ene a

0 1
  C      105.011     -67.091     141.107
  O      104.680     -68.019     142.153
  P      105.754     -68.305     143.317
  C      105.443     -70.885     143.620
  O      105.272     -69.582     144.158
  C      104.603     -71.895     144.408
  O      103.212     -71.809     144.021
  C      104.991     -73.349     144.178
  O      106.169     -73.700     144.883
  C      103.745     -74.074     144.678
  O      103.774     -74.220     146.108
  C      102.623     -73.108     144.251
  N      101.893     -73.578     143.075
  C      100.885     -74.508     143.304
  O      100.638     -74.975     144.415
  N      100.187     -74.916     142.200
  C      100.438     -74.545     140.908
  O       99.787     -74.960     139.958
  C      101.567     -73.622     140.721
  C      102.235     -73.193     141.794
  O      105.461     -67.103     144.340
  O      107.185     -68.299     142.893
  H      104.679     -74.510     146.341
  H      106.275     -66.890     144.834
  H       99.432     -75.567     142.347
  H      101.814     -73.322     139.711
  H      103.072     -72.511     141.671
  H      101.909     -72.972     145.072
  H      103.651     -75.079     144.256
  H      105.110     -73.538     143.105
  H      104.674     -71.641     145.473
  H      106.497     -71.167     143.686
  H      105.147     -70.876     142.566
  P      107.266     -74.550     144.073
  C      108.071     -76.223     145.915
  O      108.316     -75.045     145.178
  O      108.022     -73.388     143.274
  O      106.666     -75.612     143.212
  H      108.057     -72.557     143.780
  H      107.536     -76.967     145.318
  H      107.483     -75.979     146.803
  H      109.029     -76.647     146.231
  H      104.192     -67.019     140.422
  H      105.881     -67.434     140.588
  H      105.206     -66.129     141.532

 3  4  5  6  7  8  9  10  11  12  13  23  28  29  30  31  32 0
 6-311+G(2d,p)
 ****
 33  34 0
 6-311+G(2d,p)
 ****
 1  2  14  15  16  17  18  19  20  21  22  24  25  26 0
 3-21G
 ****
 27  35  36  37  38  39  40  41  42  43  44  45 0
 3-21G
 ****


