%nproc=1
%NoSave
%Mem=1900MB
#P OB98/GEN NMR

erre ene a

0 1
  C       74.434      24.336     -18.231
  O       75.453      23.341     -18.292
  P       76.996      23.600     -17.981
  C       77.654      21.229     -17.074
  O       77.770      22.205     -18.099
  C       78.206      19.854     -17.484
  O       77.353      19.274     -18.505
  C       79.594      19.998     -18.110
  O       80.740      20.082     -17.285
  C       79.662      18.893     -19.154
  O       80.270      17.702     -18.654
  C       78.191      18.639     -19.493
  N       78.331      17.760     -24.530
  C       78.909      17.042     -23.503
  N       79.665      15.982     -23.860
  N       78.775      17.348     -22.241
  C       78.068      18.480     -22.028
  C       77.463      19.287     -22.964
  C       77.569      18.907     -24.357
  O       77.066      19.501     -25.305
  N       76.851      20.365     -22.377
  C       77.106      20.224     -21.093
  N       77.837      19.089     -20.829
  O       77.280      24.430     -16.775
  O       77.501      24.426     -19.272
  H       79.869      17.499     -17.790
  H       78.198      25.036     -18.956
  H       78.447      17.466     -25.484
  H       76.782      20.906     -20.316
  H       77.956      17.568     -19.455
  H       80.265      19.211     -20.013
  H       79.905      15.766     -24.814
  H       79.592      20.936     -18.679
  H       80.263      15.587     -23.132
  H       78.181      19.158     -16.643
  H       76.591      21.156     -16.826
  H       78.159      21.574     -16.172
  P       81.497      21.424     -16.850
  C       83.286      20.269     -15.426
  O       83.030      21.059     -16.573
  O       80.939      21.723     -15.380
  O       81.278      22.594     -17.751
  H       81.132      22.644     -15.124
  H       84.346      20.346     -15.171
  H       83.047      19.224     -15.639
  H       82.690      20.613     -14.574
  H       73.492      23.897     -18.485
  H       74.660      25.121     -18.922
  H       74.385      24.737     -17.240

 3  4  5  6  7  8  9  10  11  12  23  26  30  31 0
 6-311+G(2d,p)
 ****
 33  35  36  37  38 0
 6-311+G(2d,p)
 ****
 1  2  13  14  15  16  17  18  19  20  21  22  24  25 0
 3-21G
 ****
 27  28  29  32  34  39  40  41  42  43  44  45  46  47  48  49 0
 3-21G
 ****


