%nproc=1
%NoSave
%Mem=1900MB
#P OB98/GEN NMR

erre ene a

0 1
  C      193.851    -473.714    -234.277
  O      192.945    -473.948    -235.337
  H      194.326    -472.735    -234.392
  H      193.298    -473.731    -233.334
  H      194.612    -474.498    -234.255
  P      193.546    -473.856    -236.821
  C      194.697    -471.808    -237.919
  O      193.569    -472.300    -237.208
  C      194.398    -470.428    -238.493
  O      194.134    -469.492    -237.428
  C      195.539    -469.815    -239.295
  O      195.610    -470.352    -240.614
  C      195.114    -468.354    -239.314
  O      194.111    -468.149    -240.328
  C      194.494    -468.173    -237.919
  N      195.906    -463.744    -235.740
  C      194.970    -464.031    -236.672
  N      194.658    -465.226    -237.215
  C      195.416    -466.200    -236.683
  C      196.404    -466.059    -235.726
  C      196.650    -464.761    -235.252
  N      197.615    -464.475    -234.309
  N      196.956    -467.283    -235.412
  C      196.312    -468.151    -236.168
  N      195.379    -467.541    -236.959
  O      192.373    -474.447    -237.738
  O      194.829    -474.589    -237.038
  H      193.650    -467.316    -240.101
  H      192.769    -474.943    -238.479
  H      194.395    -463.183    -237.035
  H      196.491    -469.218    -236.173
  H      193.564    -467.588    -237.965
  H      195.937    -467.668    -239.526
  H      196.493    -469.908    -238.772
  H      193.488    -470.508    -239.104
  H      194.936    -472.495    -238.738
  H      197.609    -463.574    -233.868
  H      198.162    -465.250    -233.940
  H      195.552    -471.761    -237.235
  P      196.973    -470.119    -241.434
  C      198.381    -467.968    -241.784
  O      197.082    -468.531    -241.645
  O      196.612    -470.663    -242.894
  O      198.175    -470.795    -240.868
  H      197.424    -470.942    -243.355
  H      198.299    -466.909    -241.917
  H      198.867    -468.397    -242.635
  H      198.955    -468.174    -240.905

 6  7  8  9  10  11  12  13  14  15  25  28  32  33  34  35 0
 6-311+G(2d,p)
 ****
 36  39  40 0
 6-311+G(2d,p)
 ****
 1  2  3  4  5  16  17  18  19  20  21  22  23  24 0
 3-21G
 ****
 26  27  29  30  31  37  38  41  42  43  44  45  46  47  48 0
 3-21G
 ****


