%nproc=1
%NoSave
%Mem=1900MB
#P OB98/GEN NMR

erre ene a

0 1
  C     -111.312     -36.554     156.481
  O     -111.024     -37.066     157.766
  H     -111.153     -37.347     155.747
  H     -110.650     -35.717     156.241
  H     -112.356     -36.232     156.425
  P     -111.070     -36.058     159.016
  C     -108.485     -35.859     159.001
  O     -109.728     -35.184     158.866
  C     -107.760     -35.387     160.259
  O     -106.583     -36.184     160.509
  C     -107.248     -33.950     160.201
  O     -108.276     -32.979     160.330
  C     -106.303     -33.959     161.391
  O     -107.063     -33.887     162.611
  C     -105.637     -35.348     161.236
  N     -104.357     -35.291     160.528
  C     -103.208     -35.539     161.291
  O     -103.296     -35.789     162.493
  N     -101.978     -35.460     160.680
  C     -101.902     -35.144     159.425
  N     -100.656     -35.033     158.880
  C     -103.086     -34.892     158.582
  C     -104.269     -34.976     159.189
  O     -111.282     -36.680     160.359
  O     -112.194     -34.989     158.624
  H     -107.515     -33.024     162.615
  H     -112.270     -34.347     159.374
  H     -102.966     -34.623     157.541
  H     -105.184     -34.789     158.641
  H     -105.480     -35.815     162.214
  H     -105.604     -33.117     161.395
  H     -106.665     -33.777     159.291
  H     -108.438     -35.538     161.109
  H      -99.868     -35.172     159.496
  H     -107.890     -35.660     158.105
  H     -100.505     -34.531     158.011
  H     -108.651     -36.938     159.083
  P     -108.196     -31.671     159.400
  C     -108.131     -29.804     161.220
  O     -107.416     -30.551     160.247
  O     -109.708     -31.152     159.386
  O     -107.648     -31.886     158.023
  H     -110.192     -31.495     158.611
  H     -107.470     -29.106     161.690
  H     -108.531     -30.469     161.957
  H     -108.931     -29.274     160.746

 6  7  8  9  10  11  12  13  14  15  16  26  30  31  32  33  35 0
 6-311+G(2d,p)
 ****
 37  38 0
 6-311+G(2d,p)
 ****
 1  2  3  4  5  17  18  19  20  21  22  23  24  25 0
 3-21G
 ****
 27  28  29  34  36  39  40  41  42  43  44  45  46 0
 3-21G
 ****


