%nproc=1
%NoSave
%Mem=1900MB
#P OB98/GEN NMR

erre ene a

0 1
  C      -40.373     676.456     158.171
  O      -41.704     676.512     158.638
  P      -42.723     675.330     158.283
  C      -42.017     673.530     159.990
  O      -43.007     674.506     159.633
  C      -42.475     672.721     161.197
  O      -42.296     673.489     162.408
  C      -43.942     672.343     161.172
  O      -44.174     671.257     160.287
  C      -44.193     672.017     162.642
  O      -43.760     670.682     162.948
  C      -43.309     673.052     163.353
  N      -45.118     675.327     167.547
  C      -44.548     674.117     167.346
  N      -44.120     673.555     166.192
  C      -44.357     674.390     165.162
  C      -44.980     675.645     165.196
  C      -45.342     676.128     166.474
  N      -45.866     677.380     166.692
  N      -45.075     676.165     163.924
  C      -44.546     675.254     163.130
  N      -44.052     674.189     163.841
  O      -42.356     674.495     157.095
  O      -44.115     676.084     158.036
  H      -44.255     670.073     162.356
  H      -44.418     675.919     157.125
  H      -44.401     673.520     168.240
  H      -44.497     675.316     162.043
  H      -42.781     672.622     164.202
  H      -45.252     672.086     162.917
  H      -44.557     673.206     160.891
  H      -41.844     671.827     161.277
  H      -41.074     674.046     160.210
  H      -45.963     677.680     167.644
  H      -45.755     678.091     165.957
  H      -41.854     672.862     159.127
  P      -45.546     671.187     159.461
  C      -44.584     672.137     157.286
  O      -45.134     671.003     157.922
  O      -46.526     672.261     159.737
  O      -46.135     669.734     159.839
  H      -47.110     669.773     159.817
  H      -45.378     672.845     157.004
  H      -44.076     671.818     156.351
  H      -43.847     672.630     157.928
  H      -39.842     677.324     158.502
  H      -40.371     676.424     157.101
  H      -39.897     675.578     158.555

 3  4  5  6  7  8  9  10  11  12  22  25  29  30  31  32 0
 6-311+G(2d,p)
 ****
 33  36  37 0
 6-311+G(2d,p)
 ****
 1  2  13  14  15  16  17  18  19  20  21  23  24  26 0
 3-21G
 ****
 27  28  34  35  38  39  40  41  42  43  44  45  46  47  48 0
 3-21G
 ****


