%nproc=1
%NoSave
%Mem=1900MB
#P OB98/GEN NMR

erre ene a

0 1
  C      -34.091    -623.310    -611.124
  O      -34.109    -623.458    -612.529
  H      -34.809    -622.537    -610.844
  H      -33.097    -622.998    -610.792
  H      -34.372    -624.245    -610.631
  P      -33.238    -624.624    -613.199
  C      -35.074    -626.402    -613.526
  O      -33.926    -626.012    -612.783
  C      -35.350    -627.886    -613.315
  O      -34.212    -628.671    -613.746
  C      -35.594    -628.274    -611.860
  O      -36.888    -627.885    -611.447
  C      -35.355    -629.775    -611.925
  O      -36.502    -630.454    -612.459
  C      -34.172    -629.860    -612.922
  N      -32.876    -629.987    -612.248
  C      -32.325    -631.263    -612.217
  O      -32.871    -632.244    -612.708
  N      -31.136    -631.377    -611.550
  C      -30.506    -630.387    -610.852
  O      -29.565    -630.584    -610.092
  C      -31.095    -629.048    -610.986
  C      -32.241    -628.911    -611.652
  O      -31.767    -624.552    -612.960
  O      -33.586    -624.507    -614.758
  H      -32.861    -624.043    -615.215
  H      -36.703    -630.030    -613.318
  H      -30.749    -632.310    -611.479
  H      -30.591    -628.221    -610.502
  H      -32.710    -627.935    -611.736
  H      -34.293    -630.718    -613.589
  H      -35.152    -630.205    -610.944
  H      -34.824    -627.823    -611.219
  H      -36.209    -628.168    -613.943
  H      -34.884    -626.209    -614.588
  H      -35.933    -625.802    -613.204
  P      -37.123    -627.157    -610.041
  C      -38.436    -625.060    -610.716
  O      -37.179    -625.575    -610.301
  O      -36.194    -627.575    -608.952
  O      -38.638    -627.511    -609.669
  H      -38.666    -627.900    -608.767
  H      -38.358    -624.002    -610.859
  H      -39.171    -625.265    -609.966
  H      -38.726    -625.524    -611.636

 6  7  8  9  10  11  12  13  14  15  16  27  31  32  33  34  35 0
 6-311+G(2d,p)
 ****
 36  37 0
 6-311+G(2d,p)
 ****
 1  2  3  4  5  17  18  19  20  21  22  23  24  25 0
 3-21G
 ****
 26  28  29  30  38  39  40  41  42  43  44  45 0
 3-21G
 ****


