%nproc=1
%NoSave
%Mem=1900MB
#P OB98/GEN NMR

erre ene a

0 1
  C       -2.895     -25.879      96.949
  O       -2.414     -26.435      95.744
  H       -2.050     -25.711      97.620
  H       -3.588     -26.576      97.427
  H       -3.394     -24.922      96.772
  P       -3.394     -26.512      94.480
  C       -3.046     -26.856      91.948
  O       -2.509     -27.041      93.249
  C       -1.927     -26.732      90.910
  O       -1.158     -25.526      91.189
  C       -0.944     -27.913      90.908
  O       -0.463     -28.068      89.567
  C        0.161     -27.396      91.808
  O        1.350     -28.134      91.644
  C        0.213     -25.927      91.380
  N        0.902     -25.084      92.356
  C        2.287     -25.168      92.381
  O        2.930     -25.928      91.656
  N        2.921     -24.382      93.303
  C        2.310     -23.584      94.225
  O        2.927     -22.925      95.051
  C        0.839     -23.568      94.181
  C        0.211     -24.304      93.262
  O       -4.182     -25.278      94.194
  O       -4.341     -27.765      94.790
  H        2.034     -27.821      92.274
  H       -5.219     -27.631      94.384
  H        3.928     -24.424      93.328
  H        0.323     -22.952      94.905
  H       -0.872     -24.313      93.203
  H        0.731     -25.821      90.417
  H       -0.130     -27.476      92.860
  H       -1.389     -28.843      91.265
  H       -2.381     -26.596      89.921
  H       -3.646     -25.940      91.958
  H       -3.693     -27.702      91.696
  P       -1.382     -28.667      88.395
  C       -1.408     -28.508      85.824
  O       -0.603     -28.515      87.000
  O       -2.778     -28.136      88.377
  O       -1.382     -30.249      88.648
  H       -2.209     -30.636      88.304
  H       -0.781     -28.402      84.963
  H       -2.096     -27.689      85.867
  H       -1.952     -29.427      85.758

 6  7  8  9  10  11  12  13  14  15  16  26  31  32  33  34  35 0
 6-311+G(2d,p)
 ****
 36  37 0
 6-311+G(2d,p)
 ****
 1  2  3  4  5  17  18  19  20  21  22  23  24  25 0
 3-21G
 ****
 27  28  29  30  38  39  40  41  42  43  44  45 0
 3-21G
 ****


