%nproc=1
%NoSave
%Mem=1900MB
#P OB98/GEN NMR

erre ene a

0 1
  C     -494.610    -575.829      27.852
  O     -493.336    -575.369      27.438
  H     -494.572    -576.067      28.918
  H     -494.880    -576.738      27.297
  H     -495.362    -575.051      27.688
  P     -493.172    -575.025      25.877
  C     -493.785    -572.508      26.049
  O     -494.168    -573.795      25.580
  C     -493.249    -571.663      24.900
  O     -494.164    -571.661      23.784
  C     -492.987    -570.208      25.261
  O     -491.719    -570.051      25.886
  C     -493.051    -569.541      23.891
  O     -491.816    -569.722      23.170
  C     -494.185    -570.324      23.214
  N     -497.483    -567.000      21.302
  C     -496.184    -567.285      20.926
  N     -495.672    -566.557      19.910
  N     -495.440    -568.194      21.512
  C     -496.058    -568.802      22.546
  C     -497.335    -568.608      23.022
  C     -498.169    -567.632      22.337
  O     -499.347    -567.391      22.571
  N     -497.610    -569.432      24.091
  C     -496.477    -570.092      24.281
  N     -495.511    -569.743      23.372
  O     -493.890    -576.259      25.147
  O     -491.772    -574.853      25.401
  H     -491.643    -570.679      23.063
  H     -493.385    -576.483      24.340
  H     -498.017    -566.311      20.800
  H     -496.320    -570.840      25.054
  H     -494.025    -570.435      22.131
  H     -493.210    -568.464      23.969
  H     -496.078    -565.670      19.630
  H     -493.787    -569.803      25.893
  H     -494.702    -566.721      19.678
  H     -492.318    -572.144      24.550
  H     -493.011    -572.625      26.816
  H     -494.655    -572.016      26.490
  P     -491.465    -568.741      26.768
  C     -492.489    -569.664      28.974
  O     -492.569    -568.701      27.926
  O     -491.905    -567.553      25.787
  O     -490.055    -568.566      27.228
  H     -491.111    -567.093      25.442
  H     -493.291    -569.507      29.665
  H     -491.554    -569.560      29.484
  H     -492.562    -570.648      28.560

 6  7  8  9  10  11  12  13  14  15  26  29  33  34 0
 6-311+G(2d,p)
 ****
 36  38  39  40  41 0
 6-311+G(2d,p)
 ****
 1  2  3  4  5  16  17  18  19  20  21  22  23  24  25 0
 3-21G
 ****
 27  28  30  31  32  35  37  42  43  44  45  46  47 0
 3-21G
 ****
 48  49 0
 3-21G
 ****


