%nproc=1
%NoSave
%Mem=1900MB
#P OB98/GEN NMR

erre ene a

0 1
  C      436.748      15.448     100.936
  O      436.707      16.670     100.222
  P      436.066      16.650      98.755
  C      434.879      18.890      99.373
  O      435.612      18.153      98.408
  C      435.013      20.388      99.102
  O      434.767      20.662      97.702
  C      434.031      21.254      99.868
  O      434.437      21.435     101.212
  C      434.036      22.540      99.048
  O      435.142      23.377      99.413
  C      434.210      21.998      97.617
  N      432.954      22.015      96.859
  C      432.454      23.274      96.551
  O      432.999      24.322      96.916
  N      431.276      23.292      95.850
  C      430.552      22.200      95.477
  O      429.469      22.291      94.901
  C      431.118      20.893      95.854
  C      432.278      20.869      96.515
  O      434.667      15.875      98.954
  O      436.911      16.003      97.707
  H      435.054      23.558     100.381
  H      434.483      15.329      98.168
  H      430.909      24.196      95.593
  H      430.563      20.006      95.573
  H      432.707      19.920      96.814
  H      434.943      22.602      97.081
  H      433.125      23.120      99.202
  H      433.026      20.798      99.831
  H      436.047      20.687      99.321
  H      435.257      18.660     100.365
  H      433.821      18.590      99.330
  P      433.287      21.623     102.317
  C      434.966      21.257     104.283
  O      434.051      22.115     103.638
  O      432.903      20.091     102.596
  O      432.156      22.469     101.840
  H      433.664      19.495     102.511
  H      435.519      20.649     103.572
  H      434.421      20.615     104.986
  H      435.682      21.875     104.854
  H      437.199      15.609     101.893
  H      437.324      14.733     100.386
  H      435.753      15.079     101.068

 3  4  5  6  7  8  9  10  11  12  13  23  28  29  30  31  32 0
 6-311+G(2d,p)
 ****
 33  34 0
 6-311+G(2d,p)
 ****
 1  2  14  15  16  17  18  19  20  21  22  24  25  26 0
 3-21G
 ****
 27  35  36  37  38  39  40  41  42  43  44  45 0
 3-21G
 ****


