%nproc=1
%NoSave
%Mem=1900MB
#P OB98/GEN NMR

erre ene a

0 1
  C       92.119     -61.164      99.360
  O       91.518     -59.995      99.892
  P       90.664     -60.162     101.244
  C       88.068     -60.365     101.176
  O       89.324     -60.951     100.859
  C       87.752     -59.231     100.193
  O       87.964     -59.686      98.836
  C       86.312     -58.737     100.241
  O       86.090     -57.915     101.377
  C       86.227     -58.012      98.896
  O       86.844     -56.720      98.997
  C       87.051     -58.932      97.981
  N       84.437     -59.642      93.639
  C       85.119     -58.579      94.113
  N       85.768     -58.453      95.286
  C       85.681     -59.594      95.999
  C       85.000     -60.749      95.655
  C       84.357     -60.755      94.407
  N       83.659     -61.844      93.925
  N       85.112     -61.701      96.653
  C       85.853     -61.130      97.578
  N       86.231     -59.861      97.230
  O       90.145     -58.675     101.534
  O       91.430     -60.729     102.407
  H       86.823     -56.321      98.111
  H       90.102     -58.505     102.498
  H       85.146     -57.708      93.462
  H       86.140     -61.595      98.515
  H       87.664     -58.372      97.260
  H       85.193     -57.858      98.559
  H       85.616     -59.586     100.256
  H       88.451     -58.400     100.388
  H       88.100     -59.954     102.189
  H       83.108     -61.713      93.089
  H       83.485     -62.614      94.562
  H       87.289     -61.140     101.144
  P       84.646     -57.995     102.067
  C       83.662     -55.644     101.694
  O       83.746     -56.976     101.209
  O       84.887     -57.187     103.428
  O       84.095     -59.381     102.224
  H       85.335     -56.336     103.268
  H       83.067     -55.047     100.995
  H       84.660     -55.208     101.785
  H       83.165     -55.644     102.675
  H       92.653     -60.915      98.467
  H       91.360     -61.883      99.133
  H       92.797     -61.575     100.079

 3  4  5  6  7  8  9  10  11  12  22  25  29  30  31  32 0
 6-311+G(2d,p)
 ****
 33  36  37 0
 6-311+G(2d,p)
 ****
 1  2  13  14  15  16  17  18  19  20  21  23  24  26 0
 3-21G
 ****
 27  28  34  35  38  39  40  41  42  43  44  45  46  47  48 0
 3-21G
 ****


