%nproc=1
%NoSave
%Mem=1900MB
#P OB98/GEN NMR

erre ene a

0 1
  C      421.814    -290.726    -382.649
  O      422.359    -290.362    -383.901
  H      422.113    -291.750    -382.417
  H      420.719    -290.676    -382.694
  H      422.184    -290.059    -381.863
  P      422.185    -288.825    -384.350
  C      424.603    -288.616    -383.335
  O      423.339    -288.022    -383.578
  C      425.730    -287.704    -383.804
  O      425.706    -287.625    -385.254
  C      425.634    -286.270    -383.256
  O      426.951    -285.778    -383.026
  C      425.012    -285.500    -384.414
  O      425.295    -284.103    -384.343
  C      425.617    -286.231    -385.620
  N      424.833    -286.047    -386.846
  C      425.506    -286.243    -388.056
  O      426.700    -286.554    -388.064
  N      424.829    -286.051    -389.234
  C      423.596    -285.629    -389.197
  N      422.981    -285.431    -390.403
  C      422.858    -285.368    -387.949
  C      423.537    -285.597    -386.820
  O      420.849    -288.411    -383.570
  O      422.140    -288.615    -385.824
  H      424.835    -283.655    -385.085
  H      420.827    -288.718    -382.652
  H      421.840    -285.002    -387.976
  H      423.070    -285.441    -385.853
  H      426.634    -285.879    -385.813
  H      423.921    -285.618    -384.409
  H      425.042    -286.214    -382.336
  H      426.692    -288.159    -383.524
  H      423.529    -285.602    -391.235
  H      424.675    -289.581    -383.854
  H      422.051    -285.054    -390.493
  H      424.681    -288.811    -382.258
  P      427.406    -285.418    -381.527
  C      428.132    -287.903    -381.537
  O      427.783    -286.761    -380.746
  O      426.504    -284.484    -380.793
  O      428.844    -284.738    -381.756
  H      428.905    -283.966    -381.151
  H      428.360    -288.727    -380.893
  H      428.987    -287.673    -382.138
  H      427.310    -288.163    -382.171

 6  7  8  9  10  11  12  13  14  15  16  26  30  31  32  33  35 0
 6-311+G(2d,p)
 ****
 37  38 0
 6-311+G(2d,p)
 ****
 1  2  3  4  5  17  18  19  20  21  22  23  24  25 0
 3-21G
 ****
 27  28  29  34  36  39  40  41  42  43  44  45  46 0
 3-21G
 ****


