%nproc=1
%NoSave
%Mem=1900MB
#P OB98/GEN NMR

erre ene a

0 1
  C      303.577     -99.313     154.260
  O      303.674     -97.981     153.800
  P      304.896     -97.019     154.154
  C      303.346     -95.242     155.253
  O      304.471     -96.105     155.407
  C      302.315     -95.398     156.379
  O      302.045     -96.801     156.596
  C      302.881     -94.858     157.696
  O      302.824     -93.475     157.982
  C      302.306     -95.765     158.775
  O      301.169     -95.195     159.422
  C      301.916     -97.031     158.008
  N      302.959    -100.476     161.575
  C      301.884     -99.615     161.489
  N      301.099     -99.535     162.585
  N      301.626     -98.886     160.434
  C      302.555     -99.003     159.454
  C      303.651     -99.831     159.419
  C      303.902    -100.662     160.574
  O      304.892    -101.378     160.725
  N      304.410     -99.627     158.298
  C      303.797     -98.644     157.668
  N      302.690     -98.205     158.352
  O      305.598     -96.372     153.002
  O      305.933     -98.054     154.828
  H      300.533     -94.933     158.735
  H      306.834     -97.765     154.593
  H      303.154    -100.956     162.445
  H      304.132     -98.196     156.742
  H      300.862     -97.275     158.185
  H      303.049     -95.946     159.562
  H      301.354     -99.969     163.463
  H      303.959     -95.079     157.685
  H      300.410     -98.794     162.621
  H      301.356     -94.953     156.097
  H      302.895     -95.466     154.280
  H      303.686     -94.204     155.219
  P      304.057     -92.461     158.024
  C      303.662     -92.382     160.550
  O      304.629     -92.420     159.520
  O      303.386     -91.015     157.864
  O      305.087     -92.671     156.964
  H      304.048     -90.378     157.531
  H      304.142     -92.056     161.478
  H      303.243     -93.383     160.701
  H      302.852     -91.686     160.305
  H      302.673     -99.752     153.892
  H      303.568     -99.321     155.330
  H      304.416     -99.875     153.906

 3  4  5  6  7  8  9  10  11  12  23  26  30  31 0
 6-311+G(2d,p)
 ****
 33  35  36  37  38 0
 6-311+G(2d,p)
 ****
 1  2  13  14  15  16  17  18  19  20  21  22  24  25 0
 3-21G
 ****
 27  28  29  32  34  39  40  41  42  43  44  45  46  47  48  49 0
 3-21G
 ****


