%nproc=1
%NoSave
%Mem=1900MB
#P OB98/GEN NMR

erre ene a

0 1
  C     -111.189     -47.975    -305.709
  O     -111.749     -46.684    -305.565
  H     -111.173     -48.477    -304.738
  H     -111.814     -48.556    -306.393
  H     -110.179     -47.918    -306.119
  P     -110.843     -45.568    -304.851
  C     -109.127     -44.018    -306.033
  O     -109.563     -45.351    -305.797
  C     -108.160     -43.975    -307.214
  O     -107.064     -44.898    -306.951
  C     -108.788     -44.364    -308.562
  O     -108.238     -43.520    -309.582
  C     -108.293     -45.786    -308.779
  O     -108.253     -46.152    -310.153
  C     -106.921     -45.728    -308.118
  N     -106.228     -50.424    -309.947
  C     -106.431     -49.238    -310.563
  N     -106.551     -48.015    -310.000
  C     -106.371     -48.089    -308.667
  C     -106.155     -49.220    -307.900
  C     -106.100     -50.447    -308.599
  N     -105.962     -51.664    -307.977
  N     -106.082     -48.892    -306.559
  C     -106.279     -47.589    -306.515
  N     -106.466     -47.060    -307.761
  O     -110.249     -46.363    -303.589
  O     -111.557     -44.325    -304.440
  H     -108.010     -47.097    -310.224
  H     -110.868     -46.294    -302.841
  H     -106.518     -49.275    -311.645
  H     -106.332     -46.994    -305.617
  H     -106.158     -45.279    -308.767
  H     -108.954     -46.487    -308.253
  H     -109.883     -44.298    -308.576
  H     -107.724     -42.966    -307.269
  H     -108.614     -43.647    -305.138
  H     -106.042     -52.492    -308.550
  H     -105.976     -51.703    -306.969
  H     -109.997     -43.382    -306.226
  P     -109.142     -42.297    -310.095
  C     -110.309     -40.575    -308.530
  O     -109.086     -41.126    -309.000
  O     -110.633     -42.861    -309.958
  O     -108.842     -41.874    -311.495
  H     -111.203     -42.491    -310.655
  H     -110.103     -39.811    -307.810
  H     -110.896     -41.345    -308.075
  H     -110.849     -40.154    -309.352

 6  7  8  9  10  11  12  13  14  15  25  28  32  33  34  35 0
 6-311+G(2d,p)
 ****
 36  39  40 0
 6-311+G(2d,p)
 ****
 1  2  3  4  5  16  17  18  19  20  21  22  23  24 0
 3-21G
 ****
 26  27  29  30  31  37  38  41  42  43  44  45  46  47 0
 3-21G
 ****
 48 0
 3-21G
 ****


