%nproc=1
%NoSave
%Mem=1900MB
#P OB98/GEN NMR

erre ene a

0 1
  C      -65.261      23.176     285.702
  O      -64.269      22.194     285.922
  P      -64.450      21.097     287.079
  C      -62.132      21.801     287.964
  O      -63.505      21.587     288.281
  C      -61.605      23.054     288.661
  O      -62.248      24.235     288.137
  C      -61.848      23.081     290.164
  O      -60.924      22.241     290.833
  C      -61.687      24.564     290.461
  O      -60.305      24.921     290.604
  C      -62.290      25.215     289.195
  N      -63.642      25.714     289.418
  C      -63.740      26.913     290.134
  O      -62.731      27.465     290.565
  N      -64.992      27.427     290.389
  C      -66.042      26.786     289.982
  N      -67.251      27.339     290.273
  C      -65.981      25.505     289.251
  C      -64.761      25.031     289.008
  O      -64.261      19.681     286.648
  O      -65.923      21.398     287.636
  H      -60.276      25.900     290.627
  H      -66.617      21.085     287.007
  H      -66.886      25.002     288.943
  H      -64.624      24.095     288.481
  H      -61.667      26.057     288.863
  H      -62.189      24.856     291.389
  H      -62.876      22.774     290.378
  H      -60.530      23.131     288.450
  H      -67.251      28.203     290.801
  H      -62.044      21.925     286.881
  H      -68.134      26.907     290.035
  H      -61.551      20.921     288.258
  P      -61.457      21.053     291.762
  C      -60.642      22.378     293.802
  O      -61.712      21.648     293.225
  O      -60.651      19.795     291.718
  O      -62.941      20.789     291.216
  H      -63.086      19.827     291.141
  H      -61.040      22.997     294.613
  H      -60.166      23.025     293.062
  H      -59.908      21.684     294.212
  H      -64.961      23.811     284.895
  H      -65.386      23.762     286.589
  H      -66.187      22.699     285.456

 3  4  5  6  7  8  9  10  11  12  13  23  27  28  29  30  32 0
 6-311+G(2d,p)
 ****
 34  35 0
 6-311+G(2d,p)
 ****
 1  2  14  15  16  17  18  19  20  21  22  24  25  26 0
 3-21G
 ****
 31  33  36  37  38  39  40  41  42  43  44  45  46 0
 3-21G
 ****


