%nproc=1
%NoSave
%Mem=1900MB
#P OB98/GEN NMR

erre ene a

0 1
  C     -352.644     504.044      44.177
  O     -351.540     504.102      43.294
  H     -353.564     504.052      43.589
  H     -352.641     504.914      44.840
  H     -352.607     503.124      44.765
  P     -350.083     504.077      43.968
  C     -349.943     501.532      43.514
  O     -349.916     502.569      44.486
  C     -348.572     500.874      43.396
  O     -347.576     501.840      43.012
  C     -348.062     500.249      44.690
  O     -348.641     498.972      44.897
  C     -346.576     500.152      44.394
  O     -346.317     499.002      43.563
  C     -346.307     501.443      43.596
  N     -342.483     503.073      46.608
  C     -342.786     501.848      46.128
  N     -343.842     501.483      45.370
  C     -344.634     502.533      45.110
  C     -344.453     503.841      45.535
  C     -343.310     504.102      46.310
  N     -342.998     505.356      46.792
  N     -345.471     504.650      45.076
  C     -346.225     503.855      44.345
  N     -345.781     502.556      44.363
  O     -349.811     505.154      44.959
  O     -349.147     504.096      42.667
  H     -346.841     499.107      42.747
  H     -349.531     503.547      41.961
  H     -342.089     501.056      46.384
  H     -347.089     504.171      43.772
  H     -345.605     501.272      42.774
  H     -345.977     500.030      45.299
  H     -348.215     500.916      45.543
  H     -348.625     500.126      42.595
  H     -350.248     501.931      42.540
  H     -342.261     505.421      47.476
  H     -343.679     506.092      46.670
  H     -350.688     500.799      43.835
  P     -348.764     498.359      46.373
  C     -351.087     499.085      47.205
  O     -349.692     499.367      47.210
  O     -347.470     498.022      47.027
  O     -349.694     497.072      46.198
  H     -349.385     496.350      46.777
  H     -351.601     499.818      47.791
  H     -351.256     498.113      47.620
  H     -351.453     499.112      46.200

 6  7  8  9  10  11  12  13  14  15  25  28  32  33  34  35 0
 6-311+G(2d,p)
 ****
 36  39  40 0
 6-311+G(2d,p)
 ****
 1  2  3  4  5  16  17  18  19  20  21  22  23  24 0
 3-21G
 ****
 26  27  29  30  31  37  38  41  42  43  44  45  46  47 0
 3-21G
 ****
 48 0
 3-21G
 ****


