%nproc=1
%NoSave
%Mem=1900MB
#P OB98/GEN NMR

erre ene a

0 1
  C     -244.414    -548.876     107.243
  O     -245.127    -548.651     108.465
  P     -244.401    -548.433     109.880
  C     -244.179    -550.882     110.654
  O     -243.498    -549.713     110.222
  C     -243.305    -552.135     110.539
  O     -242.135    -552.008     111.408
  C     -244.015    -553.448     110.913
  O     -243.541    -554.446     110.002
  C     -243.498    -553.693     112.325
  O     -243.656    -555.029     112.768
  C     -242.040    -553.244     112.151
  N     -241.298    -553.043     113.390
  C     -240.499    -554.102     113.849
  O     -240.476    -555.188     113.267
  N     -239.758    -553.916     114.992
  C     -239.809    -552.788     115.623
  N     -239.036    -552.667     116.741
  C     -240.644    -551.651     115.188
  C     -241.351    -551.850     114.078
  O     -245.337    -548.063     110.986
  O     -243.332    -547.262     109.640
  H     -243.273    -546.711     110.443
  H     -243.436    -555.062     113.718
  H     -240.649    -550.724     115.738
  H     -241.968    -551.055     113.674
  H     -241.514    -553.961     111.517
  H     -244.048    -553.046     113.015
  H     -245.102    -553.392     110.841
  H     -242.922    -552.190     109.512
  H     -238.468    -553.463     117.004
  H     -245.067    -551.016     110.026
  H     -238.991    -551.830     117.303
  H     -244.514    -550.740     111.687
  P     -244.503    -554.974     108.838
  C     -245.353    -557.322     109.598
  O     -245.600    -555.934     109.516
  O     -243.564    -556.039     108.086
  O     -244.997    -553.949     107.868
  H     -243.856    -556.132     107.163
  H     -245.635    -557.664     110.597
  H     -244.298    -557.569     109.426
  H     -245.968    -557.841     108.862
  H     -245.111    -548.992     106.440
  H     -243.823    -549.763     107.333
  H     -243.776    -548.041     107.044

 3  4  5  6  7  8  9  10  11  12  13  24  27  28  29  30  32 0
 6-311+G(2d,p)
 ****
 34  35 0
 6-311+G(2d,p)
 ****
 1  2  14  15  16  17  18  19  20  21  22  23  25  26 0
 3-21G
 ****
 31  33  36  37  38  39  40  41  42  43  44  45  46 0
 3-21G
 ****


