%nproc=1
%NoSave
%Mem=1900MB
#P OB98/GEN NMR

erre ene a

0 1
  C      -54.778    -765.862    -469.969
  O      -55.471    -766.471    -471.044
  H      -54.783    -766.548    -469.119
  H      -55.275    -764.938    -469.683
  H      -53.738    -765.654    -470.259
  P      -55.510    -765.669    -472.433
  C      -55.906    -766.604    -474.824
  O      -56.333    -766.585    -473.469
  C      -56.881    -767.409    -475.682
  O      -56.671    -768.833    -475.446
  C      -58.369    -767.108    -475.412
  O      -59.085    -767.199    -476.649
  C      -58.794    -768.272    -474.526
  O      -60.208    -768.487    -474.546
  C      -57.974    -769.397    -475.164
  N      -60.311    -773.648    -473.783
  C      -60.643    -772.700    -474.744
  N      -61.789    -772.918    -475.440
  N      -59.941    -771.633    -474.984
  C      -58.799    -771.559    -474.246
  C      -58.342    -772.421    -473.268
  C      -59.176    -773.586    -472.983
  O      -58.932    -774.448    -472.139
  N      -57.171    -771.977    -472.723
  C      -56.913    -770.856    -473.355
  N      -57.870    -770.556    -474.293
  O      -53.997    -765.785    -472.945
  O      -55.958    -764.246    -472.343
  H      -60.453    -768.761    -475.457
  H      -53.483    -765.009    -472.664
  H      -60.896    -774.441    -473.630
  H      -56.045    -770.216    -473.195
  H      -58.407    -769.746    -476.108
  H      -58.479    -768.099    -473.493
  H      -62.371    -773.739    -475.333
  H      -58.553    -766.128    -474.946
  H      -62.038    -772.252    -476.164
  H      -56.647    -767.219    -476.744
  H      -54.918    -767.075    -474.878
  H      -55.831    -765.569    -475.201
  P      -59.092    -765.917    -477.620
  C      -60.041    -765.513    -480.014
  O      -60.207    -766.154    -478.752
  O      -57.714    -766.072    -478.427
  O      -59.167    -764.601    -476.899
  H      -57.387    -765.184    -478.712
  H      -60.860    -765.768    -480.654
  H      -59.124    -765.837    -480.461
  H      -60.014    -764.452    -479.875

 6  7  8  9  10  11  12  13  14  15  26  29  33  34 0
 6-311+G(2d,p)
 ****
 36  38  39  40  41 0
 6-311+G(2d,p)
 ****
 1  2  3  4  5  16  17  18  19  20  21  22  23  24  25 0
 3-21G
 ****
 27  28  30  31  32  35  37  42  43  44  45  46  47 0
 3-21G
 ****
 48  49 0
 3-21G
 ****


