%nproc=1
%NoSave
%Mem=1900MB
#P OB98/GEN NMR

erre ene a

0 1
  C      120.903      48.542      49.419
  O      119.613      49.119      49.434
  H      120.947      47.763      50.183
  H      121.656      49.300      49.650
  H      121.115      48.090      48.447
  P      119.213      50.151      48.275
  C      119.840      52.171      49.753
  O      120.067      51.485      48.528
  C      120.762      53.383      49.850
  O      122.142      52.963      49.827
  C      120.611      54.371      48.695
  O      119.438      55.149      48.849
  C      121.916      55.148      48.819
  O      121.827      56.137      49.854
  C      122.907      54.025      49.210
  N      123.683      53.522      48.080
  C      124.284      54.477      47.264
  O      124.150      55.689      47.440
  N      125.033      53.991      46.221
  C      125.164      52.677      45.874
  O      125.803      52.297      44.898
  C      124.480      51.713      46.752
  C      123.784      52.171      47.794
  O      117.749      50.372      48.077
  O      119.897      49.531      46.966
  H      121.031      56.673      49.660
  H      119.228      49.055      46.439
  H      125.463      54.672      45.614
  H      124.557      50.664      46.502
  H      123.267      51.478      48.449
  H      123.609      54.389      49.971
  H      122.177      55.676      47.899
  H      120.607      53.839      47.737
  H      120.577      53.879      50.815
  H      120.049      51.487      50.584
  H      118.791      52.477      49.799
  P      118.513      55.486      47.588
  C      119.318      57.919      47.489
  O      119.212      56.691      46.783
  O      117.067      55.704      47.896
  O      118.715      54.233      46.610
  H      117.916      53.667      46.628
  H      119.794      58.648      46.867
  H      119.899      57.772      48.375
  H      118.340      58.262      47.756

 6  7  8  9  10  11  12  13  14  15  16  26  31  32  33  34  35 0
 6-311+G(2d,p)
 ****
 36  37 0
 6-311+G(2d,p)
 ****
 1  2  3  4  5  17  18  19  20  21  22  23  24  25 0
 3-21G
 ****
 27  28  29  30  38  39  40  41  42  43  44  45 0
 3-21G
 ****


