%nproc=1
%NoSave
%Mem=1900MB
#P OB98/GEN NMR

erre ene a

0 1
  C     -293.320     188.945     202.811
  O     -292.958     189.717     201.682
  H     -293.648     187.960     202.469
  H     -294.141     189.424     203.352
  H     -292.458     188.823     203.471
  P     -292.478     191.220     201.965
  C     -290.271     190.814     200.697
  O     -290.873     191.135     201.946
  C     -289.395     189.568     200.831
  O     -290.237     188.452     201.221
  C     -288.683     189.182     199.534
  O     -287.375     188.702     199.840
  C     -289.528     188.044     198.988
  O     -288.784     187.174     198.139
  C     -290.035     187.391     200.272
  N     -292.066     182.756     199.637
  C     -290.823     183.158     199.972
  N     -290.368     184.419     200.136
  C     -291.364     185.308     199.964
  C     -292.678     185.047     199.619
  C     -293.022     183.696     199.445
  N     -294.279     183.278     199.079
  N     -293.386     186.226     199.492
  C     -292.518     187.181     199.771
  N     -291.278     186.674     200.046
  O     -293.069     191.873     203.169
  O     -292.802     191.932     200.570
  H     -288.461     187.693     197.373
  H     -292.529     191.380     199.814
  H     -290.094     182.366     200.121
  H     -292.732     188.243     199.773
  H     -289.317     186.676     200.693
  H     -290.362     188.452     198.405
  H     -288.617     190.012     198.829
  H     -288.680     189.726     201.647
  H     -289.661     191.653     200.346
  H     -294.446     182.288     198.990
  H     -295.010     183.962     198.948
  H     -291.072     190.639     199.973
  P     -286.162     189.751     199.860
  C     -285.597     189.376     202.350
  O     -285.997     190.313     201.355
  O     -286.174     190.782     198.783
  O     -284.880     188.796     199.715
  H     -284.215     189.242     199.155
  H     -285.523     189.870     203.296
  H     -284.645     188.962     202.088
  H     -286.322     188.591     202.413

 6  7  8  9  10  11  12  13  14  15  25  28  32  33  34  35 0
 6-311+G(2d,p)
 ****
 36  39  40 0
 6-311+G(2d,p)
 ****
 1  2  3  4  5  16  17  18  19  20  21  22  23  24 0
 3-21G
 ****
 26  27  29  30  31  37  38  41  42  43  44  45  46  47 0
 3-21G
 ****
 48 0
 3-21G
 ****


