%nproc=1
%NoSave
%Mem=1900MB
#P OB98/GEN NMR

erre ene a

0 1
  C     1057.178    -173.770     998.928
  O     1056.791    -174.453    1000.113
  H     1057.615    -174.457     998.219
  H     1056.301    -173.295     998.484
  H     1057.911    -172.991     999.185
  P     1057.925    -175.245    1000.903
  C     1057.570    -177.356     999.435
  O     1057.615    -176.813    1000.758
  C     1056.997    -178.774     999.461
  O     1057.872    -179.594    1000.302
  C     1055.573    -178.863    1000.059
  O     1054.694    -179.489     999.094
  C     1055.701    -179.826    1001.241
  O     1054.603    -180.742    1001.356
  C     1057.036    -180.523    1000.988
  N     1057.025    -184.233    1004.481
  C     1056.624    -184.228    1003.200
  N     1056.742    -183.256    1002.284
  C     1057.396    -182.173    1002.815
  C     1057.898    -182.072    1004.115
  C     1057.684    -183.136    1004.973
  N     1058.037    -183.132    1006.307
  N     1058.493    -180.817    1004.287
  C     1058.324    -180.209    1003.115
  N     1057.645    -180.980    1002.229
  O     1057.594    -174.941    1002.447
  O     1059.333    -174.855    1000.552
  H     1054.707    -181.162    1002.240
  H     1058.403    -174.668    1002.902
  H     1056.108    -185.132    1002.859
  H     1058.618    -179.184    1002.895
  H     1056.902    -181.414    1000.321
  H     1055.775    -179.224    1002.173
  H     1055.155    -177.905    1000.368
  H     1057.030    -179.192     998.464
  H     1058.590    -177.380     999.035
  H     1057.736    -183.903    1006.868
  H     1058.416    -182.290    1006.680
  H     1056.944    -176.702     998.808
  P     1054.158    -178.522     997.924
  C     1051.884    -178.093     999.122
  O     1052.547    -178.577     997.959
  O     1054.491    -179.351     996.575
  O     1054.755    -177.163     997.906
  H     1054.619    -178.747     995.833
  H     1050.826    -178.194     998.998
  H     1052.129    -177.062     999.269
  H     1052.199    -178.659     999.974

 6  7  8  9  10  11  12  13  14  15  25  28  32  33  34  35 0
 6-311+G(2d,p)
 ****
 36  39  40 0
 6-311+G(2d,p)
 ****
 1  2  3  4  5  16  17  18  19  20  21  22  23  24 0
 3-21G
 ****
 26  27  29  30  31  37  38  41  42  43  44  45  46  47  48 0
 3-21G
 ****


