%nproc=1
%NoSave
%Mem=1900MB
#P OB98/GEN NMR

erre ene a

0 1
  C     -122.002    -246.857    -244.500
  O     -122.067    -246.005    -245.624
  H     -121.819    -247.878    -244.845
  H     -122.950    -246.838    -243.954
  H     -121.185    -246.561    -243.835
  P     -122.196    -244.423    -245.392
  C     -123.865    -242.843    -244.227
  O     -123.494    -244.193    -244.478
  C     -124.580    -242.743    -242.881
  O     -123.718    -243.208    -241.819
  C     -124.982    -241.320    -242.498
  O     -126.112    -240.901    -243.234
  C     -125.203    -241.487    -241.003
  O     -126.484    -242.082    -240.735
  C     -124.064    -242.462    -240.628
  N     -122.895    -241.781    -240.072
  C     -122.734    -241.857    -238.694
  O     -123.518    -242.454    -237.956
  N     -121.659    -241.181    -238.178
  C     -120.806    -240.382    -238.886
  O     -119.996    -239.625    -238.358
  C     -120.975    -240.403    -240.345
  C     -122.006    -241.076    -240.865
  O     -122.128    -243.579    -246.620
  O     -120.991    -244.094    -244.386
  H     -120.247    -243.707    -244.891
  H     -126.499    -242.934    -241.215
  H     -121.561    -241.189    -237.173
  H     -120.280    -239.831    -240.948
  H     -122.168    -241.081    -241.936
  H     -124.415    -243.195    -239.888
  H     -125.175    -240.537    -240.470
  H     -124.139    -240.637    -242.657
  H     -125.461    -243.399    -242.914
  H     -124.540    -242.511    -245.024
  H     -122.967    -242.216    -244.237
  P     -126.487    -239.349    -243.372
  C     -127.228    -237.429    -241.844
  O     -126.978    -238.828    -241.940
  O     -127.403    -239.017    -244.502
  O     -125.068    -238.621    -243.553
  H     -125.098    -238.063    -244.353
  H     -127.549    -237.191    -240.851
  H     -127.992    -237.155    -242.541
  H     -126.331    -236.890    -242.068

 6  7  8  9  10  11  12  13  14  15  16  27  31  32  33  34  35 0
 6-311+G(2d,p)
 ****
 36  37 0
 6-311+G(2d,p)
 ****
 1  2  3  4  5  17  18  19  20  21  22  23  24  25 0
 3-21G
 ****
 26  28  29  30  38  39  40  41  42  43  44  45 0
 3-21G
 ****


