%nproc=1
%NoSave
%Mem=1900MB
#P OB98/GEN NMR

erre ene a

0 1
  C      214.185     225.271     390.646
  O      213.785     223.954     390.314
  H      213.306     225.827     390.988
  H      214.595     225.777     389.765
  H      214.925     225.265     391.446
  P      214.910     222.880     389.928
  C      216.733     222.653     388.115
  O      215.682     223.449     388.646
  C      216.413     222.270     386.666
  O      215.888     223.408     385.951
  C      217.628     221.787     385.878
  O      217.977     220.465     386.229
  C      217.119     221.960     384.453
  O      216.284     220.849     384.068
  C      216.284     223.258     384.561
  N      217.012     224.439     384.092
  C      216.904     224.730     382.735
  O      216.269     224.028     381.937
  N      217.579     225.846     382.303
  C      218.421     226.607     383.057
  O      219.073     227.540     382.604
  C      218.518     226.243     384.477
  C      217.824     225.192     384.921
  O      214.444     221.468     389.806
  O      215.996     223.038     391.099
  H      215.960     221.051     383.169
  H      215.923     222.283     391.710
  H      217.521     226.056     381.325
  H      219.168     226.827     385.113
  H      217.881     224.904     385.972
  H      215.360     223.170     383.981
  H      217.930     222.015     383.727
  H      218.463     222.474     386.027
  H      215.632     221.492     386.687
  H      216.823     221.746     388.720
  H      217.676     223.218     388.163
  P      219.173     219.731     385.459
  C      219.775     219.109     383.041
  O      218.837     219.748     383.893
  O      219.569     218.395     386.011
  O      220.390     220.772     385.575
  H      221.141     220.348     386.053
  H      219.445     219.185     382.026
  H      219.858     218.077     383.312
  H      220.729     219.583     383.142

 6  7  8  9  10  11  12  13  14  15  16  26  31  32  33  34  35 0
 6-311+G(2d,p)
 ****
 36  37 0
 6-311+G(2d,p)
 ****
 1  2  3  4  5  17  18  19  20  21  22  23  24  25 0
 3-21G
 ****
 27  28  29  30  38  39  40  41  42  43  44  45 0
 3-21G
 ****


