%nproc=1
%NoSave
%Mem=1900MB
#P OB98/GEN NMR

erre ene a

0 1
  C     -261.695    -903.902     574.626
  O     -262.833    -903.411     573.958
  H     -262.014    -904.349     575.577
  H     -260.999    -903.092     574.854
  H     -261.195    -904.669     574.030
  P     -262.652    -902.659     572.549
  C     -263.996    -904.294     571.095
  O     -263.978    -903.007     571.707
  C     -265.417    -904.860     571.063
  O     -265.708    -905.511     572.333
  C     -266.513    -903.806     570.822
  O     -267.412    -904.267     569.819
  C     -267.217    -903.718     572.166
  O     -268.557    -903.241     572.052
  C     -267.068    -905.155     572.667
  N     -267.335    -905.270     574.091
  C     -268.681    -905.243     574.470
  O     -269.567    -905.130     573.619
  N     -268.994    -905.286     575.808
  C     -268.045    -905.310     576.695
  N     -268.424    -905.318     577.993
  C     -266.611    -905.302     576.338
  C     -266.332    -905.293     575.033
  O     -261.362    -902.945     571.848
  O     -262.848    -901.106     572.887
  H     -268.935    -903.135     572.960
  H     -262.413    -900.569     572.182
  H     -265.863    -905.319     577.110
  H     -265.304    -905.298     574.673
  H     -267.740    -905.839     572.123
  H     -266.673    -903.032     572.825
  H     -266.105    -902.837     570.516
  H     -265.453    -905.645     570.295
  H     -269.420    -905.310     578.195
  H     -263.331    -904.954     571.663
  H     -267.771    -905.309     578.773
  H     -263.628    -904.190     570.071
  P     -268.615    -903.266     569.431
  C     -267.662    -902.602     567.111
  O     -268.718    -903.213     567.836
  O     -268.035    -901.822     569.834
  O     -269.897    -903.564     570.150
  H     -268.507    -901.483     570.613
  H     -267.877    -902.645     566.064
  H     -266.747    -903.120     567.309
  H     -267.566    -901.580     567.413

 6  7  8  9  10  11  12  13  14  15  16  26  30  31  32  33  35 0
 6-311+G(2d,p)
 ****
 37  38 0
 6-311+G(2d,p)
 ****
 1  2  3  4  5  17  18  19  20  21  22  23  24  25 0
 3-21G
 ****
 27  28  29  34  36  39  40  41  42  43  44  45  46 0
 3-21G
 ****


