%nproc=1
%NoSave
%Mem=1900MB
#P OB98/GEN NMR

erre ene a

0 1
  C      499.104     110.726    -162.941
  O      499.754     109.616    -162.365
  P      501.069     108.949    -162.966
  C      502.994     109.611    -161.325
  O      502.331     109.850    -162.561
  C      504.449     110.092    -161.382
  O      505.075     109.529    -162.563
  C      504.536     111.622    -161.515
  O      505.552     112.215    -160.717
  C      504.622     111.825    -163.020
  O      505.155     113.089    -163.392
  C      505.431     110.607    -163.454
  N      507.266     110.455    -168.189
  C      507.920     110.769    -167.013
  N      509.162     111.284    -167.145
  N      507.382     110.630    -165.829
  C      506.096     110.213    -165.865
  C      505.347     109.869    -166.966
  C      505.961     109.996    -168.265
  O      505.386     109.836    -169.338
  N      504.058     109.555    -166.629
  C      504.010     109.745    -165.324
  N      505.218     110.176    -164.822
  O      500.983     108.448    -164.371
  O      501.250     107.666    -162.001
  H      504.630     113.774    -162.937
  H      501.627     106.948    -162.547
  H      507.708     110.661    -169.078
  H      503.134     109.614    -164.704
  H      506.503     110.782    -163.356
  H      503.601     111.780    -163.418
  H      509.543     111.539    -168.043
  H      503.618     112.089    -161.144
  H      509.556     111.751    -166.331
  H      504.988     109.715    -160.504
  H      502.959     108.528    -161.165
  H      502.458     110.090    -160.501
  P      505.519     113.601    -159.924
  C      504.514     113.157    -157.605
  O      504.263     113.588    -158.929
  O      505.096     114.692    -161.013
  O      506.813     113.984    -159.284
  H      505.603     115.513    -160.867
  H      503.558     112.933    -157.123
  H      505.017     113.952    -157.050
  H      505.136     112.254    -157.604
  H      498.248     110.983    -162.352
  H      498.792     110.481    -163.935
  H      499.778     111.557    -162.973

 3  4  5  6  7  8  9  10  11  12  23  26  30  31 0
 6-311+G(2d,p)
 ****
 33  35  36  37  38 0
 6-311+G(2d,p)
 ****
 1  2  13  14  15  16  17  18  19  20  21  22  24  25 0
 3-21G
 ****
 27  28  29  32  34  39  40  41  42  43  44  45  46  47  48  49 0
 3-21G
 ****


