%nproc=1
%NoSave
%Mem=1900MB
#P OB98/GEN NMR

erre ene a

0 1
  C     -523.946     235.598    -233.591
  O     -523.739     236.957    -233.921
  H     -523.597     234.978    -234.421
  H     -525.008     235.396    -233.430
  H     -523.377     235.334    -232.695
  P     -524.244     238.079    -232.895
  C     -525.708     239.292    -234.652
  O     -524.587     239.373    -233.778
  C     -525.458     240.100    -235.924
  O     -525.200     241.480    -235.591
  C     -524.251     239.633    -236.730
  O     -524.553     238.442    -237.429
  C     -524.006     240.856    -237.597
  O     -524.936     240.905    -238.694
  C     -524.287     241.999    -236.593
  N     -523.084     242.536    -235.968
  C     -522.348     243.455    -236.724
  O     -522.721     243.763    -237.858
  N     -521.205     243.987    -236.182
  C     -520.844     243.665    -234.975
  N     -519.707     244.229    -234.496
  C     -521.608     242.728    -234.131
  C     -522.696     242.196    -234.687
  O     -523.356     238.347    -231.719
  O     -525.687     237.559    -232.438
  H     -524.751     241.740    -239.166
  H     -525.619     237.044    -231.612
  H     -521.281     242.495    -233.129
  H     -523.316     241.495    -234.133
  H     -524.805     242.830    -237.092
  H     -523.003     240.867    -238.028
  H     -523.386     239.493    -236.075
  H     -526.372     240.070    -236.529
  H     -519.225     244.880    -235.106
  H     -526.572     239.697    -234.113
  H     -519.424     244.181    -233.529
  H     -525.922     238.247    -234.907
  P     -523.686     237.106    -237.231
  C     -523.175     236.806    -239.733
  O     -523.843     236.278    -238.595
  O     -523.985     236.340    -235.988
  O     -522.174     237.622    -237.309
  H     -521.916     238.060    -236.459
  H     -523.352     236.172    -240.577
  H     -522.124     236.856    -239.538
  H     -523.546     237.788    -239.941

 6  7  8  9  10  11  12  13  14  15  16  26  30  31  32  33  35 0
 6-311+G(2d,p)
 ****
 37  38 0
 6-311+G(2d,p)
 ****
 1  2  3  4  5  17  18  19  20  21  22  23  24  25 0
 3-21G
 ****
 27  28  29  34  36  39  40  41  42  43  44  45  46 0
 3-21G
 ****


