%nproc=1
%NoSave
%Mem=1900MB
#P OB98/GEN NMR

erre ene a

0 1
  C      290.874    -138.849       4.154
  O      289.899    -139.838       3.882
  P      290.065    -141.278       4.566
  C      292.398    -142.220       3.841
  O      290.999    -142.152       3.604
  C      293.018    -143.308       2.963
  O      292.555    -144.619       3.353
  C      292.663    -143.189       1.486
  O      293.444    -142.176       0.842
  C      292.951    -144.590       0.978
  O      294.347    -144.752       0.674
  C      292.539    -145.452       2.185
  N      291.254    -146.109       1.996
  C      291.282    -147.496       1.844
  O      292.328    -148.137       1.856
  N      290.074    -148.101       1.661
  C      288.866    -147.477       1.555
  O      287.824    -148.080       1.322
  C      288.894    -146.016       1.673
  C      290.063    -145.411       1.891
  O      288.626    -141.949       4.433
  O      290.539    -141.240       5.987
  H      294.565    -144.119      -0.035
  H      288.435    -142.503       5.218
  H      290.072    -149.120       1.578
  H      287.950    -145.482       1.588
  H      290.112    -144.316       1.969
  H      293.301    -146.227       2.369
  H      292.398    -144.812       0.052
  H      291.592    -142.965       1.371
  H      294.114    -143.276       3.093
  H      292.572    -142.458       4.904
  H      292.846    -141.248       3.627
  P      292.664    -140.852       0.364
  C      292.023    -141.558      -2.068
  O      292.872    -140.802      -1.221
  O      293.641    -139.710       0.950
  O      291.263    -140.776       0.876
  H      294.582    -139.999       0.948
  H      290.998    -141.618      -1.670
  H      292.429    -142.570      -2.166
  H      291.988    -141.099      -3.038
  H      290.626    -137.950       3.629
  H      291.834    -139.197       3.833
  H      290.899    -138.652       5.206

 3  4  5  6  7  8  9  10  11  12  13  23  28  29  30  31  32 0
 6-311+G(2d,p)
 ****
 33  34 0
 6-311+G(2d,p)
 ****
 1  2  14  15  16  17  18  19  20  21  22  24  25  26 0
 3-21G
 ****
 27  35  36  37  38  39  40  41  42  43  44  45 0
 3-21G
 ****


