%nproc=1
%NoSave
%Mem=1900MB
#P OB98/GEN NMR

erre ene a

0 1
  C     -541.451     190.941    -590.539
  O     -541.839     189.905    -589.644
  P     -542.951     188.869    -590.188
  C     -542.689     187.343    -588.079
  O     -543.540     188.137    -588.888
  C     -543.296     187.180    -586.680
  O     -543.206     188.410    -585.945
  C     -544.766     186.783    -586.703
  O     -544.913     185.396    -586.905
  C     -545.220     187.259    -585.313
  O     -544.858     186.289    -584.298
  C     -544.404     188.550    -585.134
  N     -547.966     191.876    -583.762
  C     -547.609     190.679    -583.189
  N     -548.251     190.336    -582.057
  N     -546.678     189.870    -583.671
  C     -546.133     190.349    -584.812
  C     -546.408     191.515    -585.488
  C     -547.388     192.406    -584.915
  O     -547.680     193.527    -585.332
  N     -545.664     191.625    -586.633
  C     -544.894     190.550    -586.623
  N     -545.122     189.747    -585.534
  O     -542.076     187.759    -590.912
  O     -544.001     189.477    -591.078
  H     -543.921     186.056    -584.395
  H     -542.071     187.908    -591.880
  H     -548.666     192.450    -583.329
  H     -544.148     190.330    -587.373
  H     -544.085     188.696    -584.098
  H     -546.292     187.376    -585.247
  H     -548.990     190.868    -581.632
  H     -545.309     187.364    -587.465
  H     -548.000     189.448    -581.618
  H     -542.695     186.419    -586.144
  H     -541.720     187.858    -587.991
  H     -542.528     186.365    -588.564
  P     -545.875     184.924    -588.108
  C     -545.631     182.390    -587.586
  O     -546.485     183.513    -587.687
  O     -544.840     184.563    -589.286
  O     -546.855     185.946    -588.548
  H     -545.224     184.806    -590.147
  H     -546.035     181.696    -586.835
  H     -544.620     182.676    -587.300
  H     -545.604     181.875    -588.556
  H     -540.715     191.560    -590.070
  H     -542.306     191.533    -590.792
  H     -541.041     190.509    -591.428

 3  4  5  6  7  8  9  10  11  12  23  26  30  31 0
 6-311+G(2d,p)
 ****
 33  35  36  37  38 0
 6-311+G(2d,p)
 ****
 1  2  13  14  15  16  17  18  19  20  21  22  24  25 0
 3-21G
 ****
 27  28  29  32  34  39  40  41  42  43  44  45  46  47  48  49 0
 3-21G
 ****


