%nproc=1
%NoSave
%Mem=1900MB
#P OB98/GEN NMR

erre ene a

0 1
  C       49.387     519.094     554.322
  O       50.718     519.584     554.253
  H       49.362     518.252     555.027
  H       49.057     518.737     553.344
  H       48.714     519.875     554.685
  P       51.015     520.816     553.274
  C       51.593     522.554     555.101
  O       50.655     522.138     554.112
  C       51.007     522.355     556.495
  O       50.795     520.953     556.757
  C       51.899     522.878     557.622
  O       51.746     524.282     557.762
  C       51.345     522.090     558.798
  O       50.099     522.666     559.225
  C       51.099     520.712     558.159
  N       52.834     516.369     560.129
  C       51.623     517.013     560.325
  N       50.781     516.435     561.210
  N       51.295     518.130     559.737
  C       52.264     518.617     558.932
  C       53.500     518.081     558.666
  C       53.846     516.819     559.288
  O       54.892     516.205     559.125
  N       54.249     518.900     557.847
  C       53.445     519.919     557.595
  N       52.231     519.800     558.239
  O       50.367     520.764     551.922
  O       52.611     520.862     553.180
  H       49.765     522.108     559.950
  H       52.936     520.343     552.416
  H       53.039     515.519     560.628
  H       53.683     520.749     556.951
  H       50.237     520.196     558.604
  H       52.011     522.085     559.667
  H       51.096     515.764     561.893
  H       52.944     522.597     557.476
  H       49.913     516.926     561.406
  H       50.023     522.842     556.520
  H       51.811     523.612     554.922
  H       52.527     521.981     555.003
  P       53.029     525.256     557.865
  C       52.846     526.659     555.696
  O       53.446     525.542     556.341
  O       54.130     524.742     558.727
  O       52.428     526.656     558.333
  H       52.373     526.757     559.322
  H       53.212     526.730     554.693
  H       53.092     527.553     556.230
  H       51.784     526.533     555.680

 6  7  8  9  10  11  12  13  14  15  26  29  33  34 0
 6-311+G(2d,p)
 ****
 36  38  39  40  41 0
 6-311+G(2d,p)
 ****
 1  2  3  4  5  16  17  18  19  20  21  22  23  24  25 0
 3-21G
 ****
 27  28  30  31  32  35  37  42  43  44  45  46  47 0
 3-21G
 ****
 48  49 0
 3-21G
 ****


