%nproc=1
%NoSave
%Mem=1900MB
#P OB98/GEN NMR

erre ene a

0 1
  C      124.191     207.932    -175.256
  O      125.254     207.657    -174.359
  H      124.479     207.590    -176.256
  H      124.020     209.007    -175.292
  H      123.281     207.410    -174.949
  P      124.940     207.789    -172.797
  C      126.159     210.021    -172.295
  O      126.161     208.619    -172.140
  C      127.517     210.602    -171.884
  O      127.637     210.541    -170.432
  C      128.729     209.852    -172.485
  O      129.732     210.797    -172.820
  C      129.200     208.976    -171.332
  O      130.590     208.646    -171.441
  C      128.866     209.854    -170.138
  N      130.301     209.531    -165.300
  C      130.536     210.521    -166.249
  N      131.262     211.583    -165.831
  N      130.083     210.475    -167.484
  C      129.336     209.379    -167.723
  C      129.038     208.322    -166.888
  C      129.565     208.378    -165.537
  O      129.409     207.509    -164.670
  N      128.276     207.377    -167.527
  C      128.115     207.850    -168.761
  N      128.744     209.074    -168.925
  O      125.167     206.301    -172.255
  O      123.573     208.296    -172.457
  H      131.101     209.486    -171.313
  H      124.320     205.942    -171.919
  H      130.672     209.609    -164.379
  H      127.573     207.358    -169.549
  H      129.641     210.616    -169.936
  H      128.620     208.048    -171.307
  H      131.612     211.707    -164.884
  H      128.463     209.261    -173.367
  H      131.420     212.337    -166.490
  H      127.537     211.665    -172.155
  H      125.381     210.458    -171.673
  H      125.950     210.270    -173.349
  P      129.490     211.674    -174.153
  C      132.072     211.789    -174.336
  O      130.857     212.481    -174.477
  O      128.476     212.813    -173.665
  O      128.932     210.893    -175.294
  H      127.597     212.655    -174.040
  H      132.884     212.441    -174.581
  H      132.081     210.946    -174.994
  H      132.176     211.454    -173.325

 6  7  8  9  10  11  12  13  14  15  26  29  33  34 0
 6-311+G(2d,p)
 ****
 36  38  39  40  41 0
 6-311+G(2d,p)
 ****
 1  2  3  4  5  16  17  18  19  20  21  22  23  24  25 0
 3-21G
 ****
 27  28  30  31  32  35  37  42  43  44  45  46  47 0
 3-21G
 ****
 48  49 0
 3-21G
 ****


