%nproc=1
%NoSave
%Mem=1900MB
#P OB98/GEN NMR

erre ene a

0 1
  C       -2.139       7.291      26.995
  O       -1.067       7.041      27.882
  H       -2.970       6.632      27.257
  H       -1.836       7.087      25.964
  H       -2.467       8.329      27.089
  P        0.275       7.888      27.642
  C        2.411       7.436      26.274
  O        1.048       7.088      26.482
  C        2.959       6.731      25.032
  O        3.121       5.323      25.335
  C        2.039       6.842      23.814
  O        2.832       6.998      22.639
  C        1.332       5.499      23.778
  O        0.884       5.155      22.469
  C        2.405       4.569      24.342
  N        1.846      -0.472      23.803
  C        2.590       0.431      23.131
  N        2.693       1.759      23.352
  C        1.960       2.120      24.420
  C        1.151       1.314      25.201
  C        1.102      -0.046      24.851
  N        0.327      -0.969      25.514
  N        0.524       2.062      26.178
  C        0.959       3.295      25.999
  N        1.816       3.382      24.937
  O        1.081       8.181      28.862
  O       -0.284       9.169      26.865
  H        1.665       5.100      21.881
  H       -0.929       8.917      26.178
  H        3.174       0.040      22.302
  H        0.674       4.154      26.597
  H        3.116       4.233      23.578
  H        0.456       5.525      24.438
  H        1.333       7.670      23.897
  H        3.957       7.126      24.815
  H        3.009       7.155      27.147
  H        0.362      -1.928      25.207
  H       -0.221      -0.674      26.310
  H        2.466       8.522      26.149
  P        3.014       8.469      22.030
  C        1.505      10.371      21.155
  O        1.579       9.005      21.551
  O        4.123       8.636      21.046
  O        3.283       9.354      23.342
  H        3.942      10.042      23.129
  H        0.503      10.603      20.860
  H        2.167      10.540      20.332
  H        1.789      10.996      21.976

 6  7  8  9  10  11  12  13  14  15  25  28  32  33  34  35 0
 6-311+G(2d,p)
 ****
 36  39  40 0
 6-311+G(2d,p)
 ****
 1  2  3  4  5  16  17  18  19  20  21  22  23  24 0
 3-21G
 ****
 26  27  29  30  31  37  38  41  42  43  44  45  46  47 0
 3-21G
 ****
 48 0
 3-21G
 ****


