%nproc=1
%NoSave
%Mem=1900MB
#P OB98/GEN NMR

erre ene a

0 1
  C      238.469    -176.989     -43.766
  O      238.199    -176.944     -42.364
  P      238.290    -175.539     -41.595
  C      240.799    -175.663     -41.043
  O      239.782    -174.963     -41.747
  C      242.049    -174.805     -40.814
  O      243.004    -175.496     -39.961
  C      242.789    -174.408     -42.100
  O      243.308    -173.089     -41.897
  C      243.914    -175.425     -42.150
  O      244.974    -175.024     -43.008
  C      244.263    -175.526     -40.662
  N      245.028    -176.720     -40.346
  C      246.329    -176.801     -40.854
  O      246.743    -175.932     -41.621
  N      247.106    -177.875     -40.499
  C      246.576    -178.852     -39.829
  N      247.384    -179.891     -39.480
  C      245.155    -178.883     -39.430
  C      244.461    -177.787     -39.695
  O      237.755    -175.534     -40.202
  O      237.437    -174.562     -42.541
  H      245.642    -175.740     -43.042
  H      236.976    -173.907     -41.981
  H      244.742    -179.754     -38.947
  H      243.411    -177.706     -39.438
  H      244.837    -174.645     -40.334
  H      243.528    -176.386     -42.520
  H      242.152    -174.414     -42.987
  H      241.738    -173.896     -40.281
  H      248.348    -179.871     -39.783
  H      241.076    -176.557     -41.611
  H      247.059    -180.669     -38.915
  H      240.386    -176.026     -40.095
  P      242.451    -171.831     -42.409
  C      243.565    -171.583     -44.745
  O      242.400    -171.886     -44.012
  O      243.471    -170.617     -42.156
  O      241.163    -171.575     -41.697
  H      242.958    -169.795     -42.051
  H      243.441    -171.936     -45.774
  H      244.449    -172.066     -44.315
  H      243.719    -170.496     -44.766
  H      238.364    -177.994     -44.117
  H      239.467    -176.650     -43.948
  H      237.778    -176.357     -44.283

 3  4  5  6  7  8  9  10  11  12  13  23  27  28  29  30  32 0
 6-311+G(2d,p)
 ****
 34  35 0
 6-311+G(2d,p)
 ****
 1  2  14  15  16  17  18  19  20  21  22  24  25  26 0
 3-21G
 ****
 31  33  36  37  38  39  40  41  42  43  44  45  46 0
 3-21G
 ****


