%nproc=1
%NoSave
%Mem=1900MB
#P OB98/GEN NMR

erre ene a

0 1
  C     -434.560    -480.233     335.767
  O     -435.203    -479.183     335.075
  H     -433.639    -479.851     336.214
  H     -434.303    -481.048     335.083
  H     -435.205    -480.608     336.568
  P     -436.496    -479.514     334.191
  C     -435.950    -478.359     331.957
  O     -436.680    -478.287     333.173
  C     -435.453    -476.972     331.537
  O     -436.572    -476.043     331.585
  C     -434.340    -476.421     332.441
  O     -433.414    -475.699     331.624
  C     -435.092    -475.477     333.355
  O     -434.241    -474.484     333.898
  C     -436.204    -474.948     332.443
  N     -437.339    -474.451     333.218
  C     -437.196    -473.184     333.796
  O     -436.153    -472.543     333.631
  N     -438.191    -472.707     334.607
  C     -439.224    -473.448     334.865
  N     -440.161    -472.925     335.699
  C     -439.409    -474.797     334.293
  C     -438.441    -475.229     333.490
  O     -437.730    -479.891     334.947
  O     -436.007    -480.707     333.240
  H     -434.786    -473.822     334.386
  H     -436.189    -481.570     333.661
  H     -440.287    -475.377     334.543
  H     -438.484    -476.216     333.034
  H     -435.831    -474.135     331.805
  H     -435.527    -476.038     334.192
  H     -433.814    -477.204     332.998
  H     -435.124    -477.016     330.495
  H     -439.977    -472.003     336.088
  H     -436.617    -478.758     331.184
  H     -440.985    -473.423     336.005
  H     -435.099    -479.039     332.073
  P     -431.835    -475.797     331.900
  C     -431.160    -473.328     331.888
  O     -431.101    -474.561     331.175
  O     -431.232    -477.134     331.609
  O     -431.694    -475.443     333.459
  H     -430.921    -475.913     333.826
  H     -430.649    -472.570     331.332
  H     -430.693    -473.446     332.844
  H     -432.182    -473.043     332.023

 6  7  8  9  10  11  12  13  14  15  16  26  30  31  32  33  35 0
 6-311+G(2d,p)
 ****
 37  38 0
 6-311+G(2d,p)
 ****
 1  2  3  4  5  17  18  19  20  21  22  23  24  25 0
 3-21G
 ****
 27  28  29  34  36  39  40  41  42  43  44  45  46 0
 3-21G
 ****


