%nproc=1
%NoSave
%Mem=1900MB
#P OB98/GEN NMR

erre ene a

0 1
  C      346.600    -242.765     -65.473
  O      346.786    -241.974     -66.626
  H      346.052    -242.178     -64.733
  H      347.572    -243.036     -65.055
  H      346.030    -243.669     -65.696
  P      347.154    -242.696     -68.005
  C      346.080    -240.961     -69.583
  O      347.286    -241.562     -69.136
  C      346.323    -239.984     -70.736
  O      347.006    -238.807     -70.259
  C      347.215    -240.584     -71.823
  O      346.552    -241.384     -72.785
  C      347.800    -239.330     -72.470
  O      346.915    -238.809     -73.478
  C      347.902    -238.357     -71.289
  N      352.655    -236.615     -71.970
  C      351.578    -236.562     -72.836
  N      351.817    -236.027     -74.055
  N      350.391    -237.006     -72.529
  C      350.326    -237.601     -71.313
  C      351.332    -237.725     -70.378
  C      352.630    -237.177     -70.703
  O      353.621    -237.202     -69.977
  N      350.892    -238.385     -69.253
  C      349.648    -238.723     -69.542
  N      349.252    -238.247     -70.771
  O      345.788    -243.435     -68.418
  O      348.292    -243.669     -67.935
  H      346.804    -239.484     -74.169
  H      345.986    -244.209     -68.976
  H      353.540    -236.229     -72.246
  H      348.991    -239.286     -68.890
  H      347.582    -237.347     -71.573
  H      348.755    -239.537     -72.963
  H      352.739    -235.777     -74.374
  H      348.037    -241.151     -71.374
  H      351.137    -236.212     -74.797
  H      345.355    -239.656     -71.143
  H      345.656    -240.430     -68.729
  H      345.358    -241.727     -69.875
  P      347.146    -242.815     -73.183
  C      344.860    -243.906     -73.785
  O      346.127    -243.472     -74.236
  O      346.928    -243.678     -71.850
  O      348.573    -242.807     -73.608
  H      347.747    -243.684     -71.319
  H      344.310    -244.316     -74.606
  H      344.324    -243.076     -73.375
  H      344.987    -244.655     -73.032

 6  7  8  9  10  11  12  13  14  15  26  29  33  34 0
 6-311+G(2d,p)
 ****
 36  38  39  40  41 0
 6-311+G(2d,p)
 ****
 1  2  3  4  5  16  17  18  19  20  21  22  23  24  25 0
 3-21G
 ****
 27  28  30  31  32  35  37  42  43  44  45  46  47 0
 3-21G
 ****
 48  49 0
 3-21G
 ****


