%nproc=1
%NoSave
%Mem=1900MB
#P OB98/GEN NMR

erre ene a

0 1
  C      128.648      23.478     460.109
  O      129.973      22.980     459.974
  P      130.263      21.939     458.783
  C      130.891      19.394     458.631
  O      130.622      20.528     459.442
  C      131.051      18.124     459.485
  O      132.290      18.219     460.216
  C      129.970      17.906     460.536
  O      129.995      16.532     460.935
  C      130.466      18.773     461.675
  O      129.856      18.417     462.910
  C      131.999      18.572     461.598
  N      132.781      19.761     462.002
  C      132.836      20.085     463.355
  O      132.283      19.454     464.246
  N      133.541      21.220     463.672
  C      134.208      22.025     462.784
  O      134.757      23.069     463.105
  C      134.236      21.553     461.390
  C      133.517      20.471     461.072
  O      131.645      22.448     458.159
  O      129.169      21.885     457.762
  H      130.106      19.123     463.561
  H      131.492      22.892     457.316
  H      133.545      21.510     464.633
  H      134.804      22.114     460.667
  H      133.509      20.124     460.039
  H      132.321      17.736     462.249
  H      130.221      19.820     461.479
  H      128.956      18.189     460.220
  H      131.127      17.254     458.816
  H      131.804      19.571     458.039
  H      130.072      19.250     457.910
  P      128.715      15.626     460.585
  C      126.233      15.592     461.255
  O      127.503      16.186     461.481
  O      128.929      14.151     460.629
  O      128.321      16.119     459.108
  H      127.760      15.446     458.681
  H      125.663      15.637     462.188
  H      126.319      14.540     460.940
  H      125.703      16.158     460.482
  H      128.604      24.155     460.936
  H      127.976      22.663     460.279
  H      128.367      23.991     459.213

 3  4  5  6  7  8  9  10  11  12  13  23  28  29  30  31  32 0
 6-311+G(2d,p)
 ****
 33  34 0
 6-311+G(2d,p)
 ****
 1  2  14  15  16  17  18  19  20  21  22  24  25  26  27 0
 3-21G
 ****
 35  36  37  38  39  40  41  42  43  44  45 0
 3-21G
 ****


