%nproc=1
%NoSave
%Mem=1900MB
#P OB98/GEN NMR

erre ene a

0 1
  C      -87.425     -99.578     -65.849
  O      -87.143     -98.587     -66.839
  P      -85.829     -98.727     -67.743
  C      -87.087     -97.563     -69.679
  O      -86.237     -98.634     -69.290
  C      -86.897     -97.255     -71.166
  O      -85.516     -96.943     -71.470
  C      -87.232     -98.438     -72.065
  O      -88.594     -98.802     -72.154
  C      -86.525     -98.072     -73.359
  O      -87.306     -97.182     -74.154
  C      -85.258     -97.360     -72.828
  N      -84.062     -98.197     -72.909
  C      -83.784     -98.747     -74.157
  O      -84.505     -98.591     -75.140
  N      -82.656     -99.519     -74.230
  C      -81.820     -99.816     -73.194
  O      -80.833    -100.534     -73.311
  C      -82.179     -99.228     -71.895
  C      -83.265     -98.459     -71.812
  O      -84.918     -99.853     -67.391
  O      -85.088     -97.319     -67.503
  H      -88.099     -97.670     -74.444
  H      -84.130     -97.499     -67.421
  H      -82.433     -99.919     -75.129
  H      -81.541     -99.448     -71.049
  H      -83.548     -98.013     -70.864
  H      -85.064     -96.446     -73.404
  H      -86.324     -98.956     -73.972
  H      -86.717     -99.321     -71.663
  H      -87.494     -96.377     -71.419
  H      -86.868     -96.678     -69.077
  H      -88.127     -97.836     -69.459
  P      -89.091    -100.197     -72.772
  C      -89.309    -100.962     -70.304
  O      -88.990    -101.318     -71.630
  O      -88.599    -100.559     -74.132
  O      -90.679     -99.959     -72.851
  H      -91.024    -100.440     -73.625
  H      -89.170    -101.839     -69.664
  H      -90.350    -100.641     -70.233
  H      -88.648    -100.165     -69.953
  H      -88.334     -99.328     -65.343
  H      -86.622     -99.615     -65.143
  H      -87.530    -100.533     -66.320

 3  4  5  6  7  8  9  10  11  12  13  23  28  29  30  31  32 0
 6-311+G(2d,p)
 ****
 33  34 0
 6-311+G(2d,p)
 ****
 1  2  14  15  16  17  18  19  20  21  22  24  25  26  27 0
 3-21G
 ****
 35  36  37  38  39  40  41  42  43  44  45 0
 3-21G
 ****


