%nproc=1
%NoSave
%Mem=1900MB
#P OB98/GEN NMR

erre ene a

0 1
  C      473.441    -242.068     141.257
  O      474.625    -241.568     140.676
  H      473.428    -241.795     142.315
  H      473.423    -243.159     141.174
  H      472.556    -241.648     140.776
  P      474.737    -241.510     139.081
  C      476.580    -239.908     138.244
  O      476.272    -241.208     138.724
  C      476.849    -238.940     139.403
  O      477.933    -239.448     140.220
  C      477.298    -237.577     138.866
  O      476.948    -236.511     139.742
  C      478.814    -237.714     138.829
  O      479.487    -236.458     138.837
  C      479.058    -238.566     140.073
  N      483.155    -240.251     142.592
  C      482.185    -239.357     143.003
  N      482.338    -238.826     144.234
  N      481.166    -239.005     142.260
  C      481.181    -239.556     141.023
  C      482.104    -240.435     140.495
  C      483.202    -240.847     141.340
  O      484.101    -241.620     141.024
  N      481.796    -240.764     139.198
  C      480.700    -240.081     138.938
  N      480.279    -239.344     140.019
  O      474.015    -240.130     138.700
  O      474.134    -242.667     138.344
  H      480.433    -236.631     138.674
  H      473.679    -240.165     137.787
  H      483.910    -240.499     143.209
  H      480.168    -240.088     137.993
  H      479.110    -237.935     140.971
  H      479.089    -238.224     137.903
  H      483.189    -238.928     144.764
  H      476.893    -237.371     137.877
  H      481.818    -237.967     144.430
  H      475.968    -238.869     140.049
  H      475.718    -239.564     137.662
  H      477.437    -239.947     137.568
  P      475.736    -235.561     139.303
  C      474.996    -234.498     141.586
  O      475.663    -234.345     140.347
  O      474.435    -236.432     139.628
  O      475.789    -235.141     137.873
  H      474.048    -236.781     138.803
  H      475.056    -233.584     142.139
  H      475.459    -235.284     142.146
  H      473.969    -234.742     141.410

 6  7  8  9  10  11  12  13  14  15  26  29  33  34 0
 6-311+G(2d,p)
 ****
 36  38  39  40  41 0
 6-311+G(2d,p)
 ****
 1  2  3  4  5  16  17  18  19  20  21  22  23  24  25 0
 3-21G
 ****
 27  28  30  31  32  35  37  42  43  44  45  46  47 0
 3-21G
 ****
 48  49 0
 3-21G
 ****


