%nproc=1
%NoSave
%Mem=1900MB
#P OB98/GEN NMR

erre ene a

0 1
  C      394.756    -517.694    -100.463
  O      394.750    -518.355    -101.708
  H      393.847    -517.089    -100.378
  H      395.624    -517.029    -100.399
  H      394.778    -518.411     -99.640
  P      395.893    -519.459    -101.949
  C      397.848    -517.749    -102.044
  O      397.077    -518.719    -102.740
  C      398.743    -516.989    -103.019
  O      399.837    -517.824    -103.457
  C      398.036    -516.514    -104.286
  O      397.335    -515.294    -104.070
  C      399.225    -516.309    -105.209
  O      399.897    -515.075    -104.875
  C      400.113    -517.508    -104.851
  N      402.162    -520.808    -108.117
  C      402.723    -519.709    -107.494
  N      404.014    -519.446    -107.793
  N      402.082    -518.931    -106.656
  C      400.797    -519.314    -106.464
  C      400.123    -520.378    -107.021
  C      400.849    -521.230    -107.935
  O      400.407    -522.232    -108.491
  N      398.828    -520.449    -106.574
  C      398.710    -519.410    -105.769
  N      399.873    -518.682    -105.675
  O      395.256    -520.425    -103.057
  O      396.307    -520.221    -100.739
  H      399.254    -514.354    -105.008
  H      395.540    -521.341    -102.877
  H      402.694    -521.360    -108.762
  H      397.808    -519.148    -105.227
  H      401.184    -517.274    -104.929
  H      398.936    -516.242    -106.258
  H      404.554    -519.971    -108.464
  H      397.385    -517.293    -104.698
  H      404.460    -518.665    -107.324
  H      399.185    -516.132    -102.476
  H      398.471    -518.255    -101.298
  H      397.172    -517.054    -101.533
  P      396.104    -514.965    -105.047
  C      397.494    -512.954    -105.930
  O      396.250    -513.401    -105.412
  O      394.839    -514.998    -104.064
  O      395.943    -515.898    -106.204
  H      394.028    -515.171    -104.574
  H      397.443    -511.903    -106.124
  H      397.709    -513.474    -106.840
  H      398.268    -513.148    -105.217

 6  7  8  9  10  11  12  13  14  15  26  29  33  34 0
 6-311+G(2d,p)
 ****
 36  38  39  40  41 0
 6-311+G(2d,p)
 ****
 1  2  3  4  5  16  17  18  19  20  21  22  23  24  25 0
 3-21G
 ****
 27  28  30  31  32  35  37  42  43  44  45  46  47 0
 3-21G
 ****
 48  49 0
 3-21G
 ****


