%nproc=1
%NoSave
%Mem=1900MB
#P OB98/GEN NMR

erre ene a

0 1
  C       -0.312    -133.092    -109.450
  O       -1.425    -132.501    -110.099
  P       -2.252    -133.303    -111.220
  C       -4.144    -132.587    -112.829
  O       -3.476    -132.339    -111.599
  C       -5.648    -132.402    -112.650
  O       -6.173    -133.473    -111.841
  C       -6.046    -131.114    -111.941
  O       -5.947    -129.998    -112.813
  C       -7.455    -131.462    -111.478
  O       -8.386    -131.320    -112.563
  C       -7.308    -132.953    -111.107
  N       -7.151    -133.167    -109.673
  C       -8.319    -133.130    -108.906
  O       -9.417    -132.937    -109.428
  N       -8.224    -133.352    -107.553
  C       -7.066    -133.568    -107.011
  N       -7.040    -133.847    -105.679
  C       -5.805    -133.558    -107.774
  C       -5.921    -133.359    -109.086
  O       -2.645    -134.689    -110.836
  O       -1.336    -133.228    -112.525
  H       -8.304    -130.401    -112.886
  H       -0.681    -133.965    -112.591
  H       -4.861    -133.728    -107.275
  H       -5.043    -133.359    -109.719
  H       -8.180    -133.519    -111.456
  H       -7.810    -130.840    -110.650
  H       -5.404    -130.944    -111.067
  H       -6.121    -132.455    -113.639
  H       -7.936    -134.016    -105.235
  H       -3.944    -133.621    -113.132
  H       -6.243    -134.298    -105.250
  H       -3.752    -131.913    -113.595
  P       -5.939    -128.538    -112.152
  C       -5.448    -126.228    -113.224
  O       -5.113    -127.603    -113.163
  O       -4.975    -128.712    -110.887
  O       -7.289    -128.030    -111.770
  H       -5.500    -128.802    -110.069
  H       -4.655    -125.702    -113.762
  H       -5.532    -125.804    -112.220
  H       -6.387    -126.098    -113.766
  H        0.097    -132.401    -108.743
  H        0.433    -133.343    -110.176
  H       -0.626    -133.979    -108.940

 3  4  5  6  7  8  9  10  11  12  13  23  27  28  29  30  32 0
 6-311+G(2d,p)
 ****
 34  35 0
 6-311+G(2d,p)
 ****
 1  2  14  15  16  17  18  19  20  21  22  24  25  26 0
 3-21G
 ****
 31  33  36  37  38  39  40  41  42  43  44  45  46 0
 3-21G
 ****


