%nproc=1
%NoSave
%Mem=1900MB
#P OB98/GEN NMR

erre ene a

0 1
  C     -165.808     279.111     123.540
  O     -166.135     277.927     122.831
  P     -167.171     276.846     123.427
  C     -167.171     275.300     125.504
  O     -166.520     276.352     124.806
  C     -166.409     274.973     126.798
  O     -166.405     276.150     127.643
  C     -167.029     273.819     127.616
  O     -165.940     273.110     128.224
  C     -167.851     274.546     128.664
  O     -168.104     273.751     129.801
  C     -166.963     275.771     128.924
  N     -167.706     276.883     129.513
  C     -168.009     276.803     130.872
  O     -167.687     275.821     131.548
  N     -168.682     277.855     131.462
  C     -169.096     278.845     130.736
  N     -169.707     279.885     131.374
  C     -168.893     278.908     129.269
  C     -168.177     277.922     128.743
  O     -167.542     275.749     122.488
  O     -168.407     277.716     123.936
  H     -168.363     272.855     129.507
  H     -169.063     277.915     123.222
  H     -169.277     279.747     128.705
  H     -167.957     277.899     127.680
  H     -166.124     275.503     129.572
  H     -168.811     274.846     128.233
  H     -167.610     273.129     126.999
  H     -165.371     274.748     126.542
  H     -169.675     279.880     132.387
  H     -167.175     274.416     124.863
  H     -169.760     280.798     130.946
  H     -168.203     275.583     125.718
  P     -166.004     271.503     128.264
  C     -168.122     270.063     128.707
  O     -167.257     271.077     129.172
  O     -164.761     271.145     129.215
  O     -165.851     270.799     126.952
  H     -164.449     270.247     129.007
  H     -168.911     269.901     129.456
  H     -167.578     269.124     128.570
  H     -168.594     270.365     127.759
  H     -165.108     279.686     122.971
  H     -165.375     278.853     124.484
  H     -166.695     279.687     123.700

 3  4  5  6  7  8  9  10  11  12  13  23  27  28  29  30  32 0
 6-311+G(2d,p)
 ****
 34  35 0
 6-311+G(2d,p)
 ****
 1  2  14  15  16  17  18  19  20  21  22  24  25  26 0
 3-21G
 ****
 31  33  36  37  38  39  40  41  42  43  44  45  46 0
 3-21G
 ****


