%nproc=1
%NoSave
%Mem=1900MB
#P OB98/GEN NMR

erre ene a

0 1
  C       51.261    -164.253     122.201
  O       52.119    -163.801     121.171
  H       51.274    -165.345     122.214
  H       50.239    -163.915     122.008
  H       51.602    -163.882     123.172
  P       52.384    -162.219     121.094
  C       54.775    -163.110     120.476
  O       53.832    -162.055     120.426
  C       55.497    -163.252     119.134
  O       54.509    -163.481     118.098
  C       56.311    -162.018     118.741
  O       57.485    -162.453     118.052
  C       55.397    -161.294     117.766
  O       56.120    -160.430     116.893
  C       54.693    -162.475     117.081
  N       53.423    -162.089     116.469
  C       53.492    -161.463     115.221
  O       54.584    -161.249     114.693
  N       52.330    -161.056     114.617
  C       51.200    -161.201     115.234
  N       50.087    -160.754     114.594
  C       51.084    -161.814     116.572
  C       52.221    -162.240     117.120
  O       52.631    -161.854     122.633
  O       51.289    -161.441     120.444
  H       56.395    -159.634     117.399
  H       53.213    -162.483     123.090
  H       50.120    -161.903     117.051
  H       52.228    -162.709     118.096
  H       55.334    -162.905     116.300
  H       54.670    -160.685     118.314
  H       56.589    -161.404     119.598
  H       56.129    -164.146     119.173
  H       50.214    -160.319     113.689
  H       54.278    -164.053     120.722
  H       49.164    -160.763     115.002
  H       55.492    -162.886     121.272
  P       58.861    -162.599     118.856
  C       60.086    -164.702     117.981
  O       59.958    -163.286     117.911
  O       58.752    -163.174     120.228
  O       59.384    -161.079     118.934
  H       59.756    -160.938     119.826
  H       60.848    -165.025     117.303
  H       59.155    -165.158     117.714
  H       60.350    -164.987     118.978

 6  7  8  9  10  11  12  13  14  15  16  26  30  31  32  33  35 0
 6-311+G(2d,p)
 ****
 37  38 0
 6-311+G(2d,p)
 ****
 1  2  3  4  5  17  18  19  20  21  22  23  24  25 0
 3-21G
 ****
 27  28  29  34  36  39  40  41  42  43  44  45  46 0
 3-21G
 ****


