%nproc=1
%NoSave
%Mem=1900MB
#P OB98/GEN NMR

erre ene a

0 1
  C      405.992     326.551     606.612
  O      404.669     327.052     606.845
  P      403.580     327.246     605.673
  C      403.375     329.738     606.326
  O      402.684     328.538     606.036
  C      402.456     330.723     607.063
  O      402.355     330.365     608.456
  C      402.928     332.176     607.073
  O      402.770     332.814     605.824
  C      402.058     332.758     608.189
  O      400.769     333.147     607.710
  C      401.916     331.561     609.162
  N      402.656     331.726     610.409
  C      401.879     331.862     611.572
  O      400.645     331.903     611.505
  N      402.524     331.958     612.770
  C      403.824     332.032     612.800
  N      404.409     332.102     614.038
  C      404.664     332.038     611.602
  C      404.013     331.883     610.442
  O      402.772     326.020     605.384
  O      404.416     327.706     604.381
  H      403.933     327.445     603.577
  H      400.924     333.799     606.991
  H      405.738     332.143     611.666
  H      404.564     331.869     609.497
  H      400.854     331.384     609.387
  H      402.516     333.640     608.652
  H      403.985     332.208     607.378
  H      401.455     330.659     606.615
  H      403.803     332.085     614.847
  H      403.696     330.195     605.384
  H      405.409     332.139     614.175
  H      404.261     329.515     606.919
  P      404.028     333.620     605.252
  C      402.774     335.896     605.356
  O      403.488     334.954     604.568
  O      404.530     332.721     604.012
  O      405.133     333.834     606.244
  H      405.505     332.718     603.987
  H      402.907     336.897     604.933
  H      403.138     335.899     606.396
  H      401.717     335.645     605.343
  H      406.527     326.512     607.538
  H      406.504     327.199     605.932
  H      405.933     325.568     606.193

 3  4  5  6  7  8  9  10  11  12  13  24  27  28  29  30  32 0
 6-311+G(2d,p)
 ****
 34  35 0
 6-311+G(2d,p)
 ****
 1  2  14  15  16  17  18  19  20  21  22  23  25  26 0
 3-21G
 ****
 31  33  36  37  38  39  40  41  42  43  44  45  46 0
 3-21G
 ****


