%nproc=1
%NoSave
%Mem=1900MB
#P OB98/GEN NMR

erre ene a

0 1
  C     -103.602     -70.476     263.431
  O     -103.975     -71.761     262.960
  P     -102.889     -72.757     262.343
  C     -102.771     -71.529     260.023
  O     -102.107     -71.995     261.181
  C     -101.851     -71.718     258.810
  O     -100.569     -71.101     259.058
  C     -101.616     -73.198     258.514
  O     -102.527     -73.660     257.531
  C     -100.169     -73.216     258.051
  O     -100.078     -72.835     256.667
  C      -99.541     -72.125     258.951
  N      -99.130     -72.503     260.321
  C      -98.219     -73.540     260.504
  O      -97.693     -74.158     259.583
  N      -97.946     -73.864     261.810
  C      -98.448     -73.237     262.912
  O      -98.393     -73.682     264.053
  C      -99.183     -71.995     262.651
  C      -99.505     -71.703     261.390
  O     -103.780     -73.819     261.551
  O     -101.983     -73.413     263.331
  H     -100.520     -73.529     256.145
  H     -103.907     -74.631     262.081
  H      -97.393     -74.703     261.947
  H      -99.482     -71.388     263.497
  H     -100.080     -70.803     261.175
  H      -98.669     -71.672     258.467
  H      -99.747     -74.218     258.119
  H     -101.695     -73.790     259.438
  H     -102.302     -71.221     257.941
  H     -103.034     -70.468     260.142
  H     -103.708     -72.077     259.879
  P     -103.258     -75.071     257.731
  C     -102.176     -76.497     255.899
  O     -102.183     -76.168     257.270
  O     -104.608     -75.192     257.113
  O     -103.321     -75.225     259.327
  H     -104.204     -74.952     259.652
  H     -101.298     -77.107     255.681
  H     -102.137     -75.586     255.285
  H     -103.075     -77.069     255.644
  H     -104.467     -69.968     263.803
  H     -103.174     -69.912     262.628
  H     -102.883     -70.579     264.217

 3  4  5  6  7  8  9  10  11  12  13  23  28  29  30  31  32 0
 6-311+G(2d,p)
 ****
 33  34 0
 6-311+G(2d,p)
 ****
 1  2  14  15  16  17  18  19  20  21  22  24  25  26  27 0
 3-21G
 ****
 35  36  37  38  39  40  41  42  43  44  45 0
 3-21G
 ****


