%nproc=1
%NoSave
%Mem=1900MB
#P OB98/GEN NMR

erre ene a

0 1
  C      252.898    -899.303    -653.941
  O      252.781    -898.873    -655.309
  P      251.442    -898.133    -655.798
  C      252.847    -896.193    -656.842
  O      251.773    -896.583    -656.000
  C      252.619    -894.783    -657.403
  O      251.291    -894.673    -657.957
  C      252.696    -893.673    -656.347
  O      254.046    -893.383    -656.010
  C      251.987    -892.533    -657.052
  O      252.877    -891.853    -657.969
  C      250.881    -893.283    -657.847
  N      249.562    -893.143    -657.229
  C      248.623    -892.413    -657.930
  O      248.868    -891.853    -659.003
  N      247.377    -892.333    -657.349
  C      247.021    -892.823    -656.135
  O      245.908    -892.693    -655.660
  C      248.093    -893.513    -655.387
  C      249.287    -893.633    -655.953
  O      250.574    -898.113    -654.443
  O      250.696    -898.803    -656.897
  H      253.191    -892.513    -658.604
  H      249.622    -898.093    -654.679
  H      246.676    -891.813    -657.869
  H      247.865    -893.893    -654.410
  H      250.096    -894.143    -655.423
  H      250.821    -892.903    -658.875
  H      251.598    -891.793    -656.359
  H      252.142    -893.973    -655.464
  H      253.334    -894.613    -658.213
  H      252.926    -896.903    -657.687
  H      253.791    -896.233    -656.281
  P      254.702    -894.233    -654.832
  C      256.755    -894.833    -656.332
  O      255.678    -895.283    -655.541
  O      253.436    -895.093    -654.338
  O      255.313    -893.373    -653.770
  H      252.835    -895.323    -655.078
  H      257.178    -893.923    -655.948
  H      256.407    -894.693    -657.359
  H      257.519    -895.613    -656.323
  H      253.848    -899.773    -653.795
  H      252.117    -900.000    -653.718
  H      252.815    -898.456    -653.293

 3  4  5  6  7  8  9  10  11  12  13  23  28  29  30  31  32 0
 6-311+G(2d,p)
 ****
 33  34 0
 6-311+G(2d,p)
 ****
 1  2  14  15  16  17  18  19  20  21  22  24  25  26 0
 3-21G
 ****
 27  35  36  37  38  39  40  41  42  43  44  45 0
 3-21G
 ****


