%nproc=1
%NoSave
%Mem=1900MB
#P OB98/GEN NMR

erre ene a

0 1
  C     1062.705     150.481    -527.743
  O     1063.327     149.211    -527.915
  P     1064.742     149.179    -528.678
  C     1064.522     146.640    -529.231
  O     1064.649     147.968    -529.735
  C     1064.243     145.656    -530.377
  O     1062.879     145.793    -530.803
  C     1065.088     145.889    -531.604
  O     1066.394     145.374    -531.419
  C     1064.295     145.140    -532.676
  O     1064.630     143.761    -532.699
  C     1062.841     145.339    -532.178
  N     1062.068     146.261    -533.016
  C     1061.465     145.686    -534.146
  O     1061.609     144.484    -534.407
  N     1060.742     146.530    -534.991
  C     1060.656     147.785    -534.730
  N     1059.933     148.566    -535.596
  C     1061.303     148.430    -533.550
  C     1062.004     147.618    -532.754
  O     1065.743     148.612    -527.558
  O     1065.198     150.490    -529.229
  H     1064.618     143.452    -531.776
  H     1066.655     148.930    -527.719
  H     1061.195     149.491    -533.378
  H     1062.498     147.994    -531.871
  H     1062.292     144.374    -532.182
  H     1064.470     145.551    -533.678
  H     1065.140     146.965    -531.852
  H     1064.380     144.641    -529.984
  H     1059.531     148.109    -536.399
  H     1063.701     146.596    -528.502
  H     1059.798     149.551    -535.466
  H     1065.451     146.383    -528.700
  P     1067.473     145.607    -532.591
  C     1068.906     143.723    -531.593
  O     1068.226     144.199    -532.742
  O     1068.584     146.501    -531.847
  O     1066.972     146.229    -533.846
  H     1069.253     146.797    -532.495
  H     1069.229     142.680    -531.778
  H     1068.235     143.728    -530.737
  H     1069.791     144.347    -531.403
  H     1061.778     150.357    -527.224
  H     1062.521     150.921    -528.701
  H     1063.349     151.119    -527.175

 3  4  5  6  7  8  9  10  11  12  13  21  23  27  28  29  30  32 0
 6-311+G(2d,p)
 ****
 34  35 0
 6-311+G(2d,p)
 ****
 1  2  14  15  16  17  18  19  20  22  24  25  26 0
 3-21G
 ****
 31  33  36  37  38  39  40  41  42  43  44  45  46 0
 3-21G
 ****


