%nproc=1
%NoSave
%Mem=1900MB
#P OB98/GEN NMR

erre ene a

0 1
  C     -291.634    -229.103     151.151
  O     -290.785    -228.699     150.077
  P     -290.170    -227.220     150.105
  C     -291.284    -225.942     148.158
  O     -290.131    -226.653     148.604
  C     -291.051    -225.361     146.754
  O     -290.013    -224.349     146.833
  C     -290.566    -226.373     145.708
  O     -291.542    -227.089     144.959
  C     -289.846    -225.459     144.720
  O     -290.799    -224.873     143.812
  C     -289.248    -224.368     145.606
  N     -284.537    -222.438     145.092
  C     -285.748    -221.987     144.695
  N     -286.955    -222.561     144.868
  C     -286.839    -223.717     145.547
  C     -285.674    -224.300     146.016
  C     -284.476    -223.613     145.763
  N     -283.243    -224.075     146.158
  N     -285.950    -225.492     146.657
  C     -287.256    -225.632     146.554
  N     -287.842    -224.579     145.906
  O     -288.911    -227.051     150.886
  O     -291.360    -226.364     150.758
  H     -291.387    -225.596     143.525
  H     -290.978    -225.680     151.341
  H     -285.747    -221.039     144.162
  H     -287.818    -226.475     146.933
  H     -289.329    -223.373     145.155
  H     -289.119    -225.997     144.106
  H     -289.850    -227.078     146.150
  H     -291.972    -224.878     146.408
  H     -291.507    -225.135     148.859
  H     -282.428    -223.543     145.898
  H     -283.175    -224.979     146.610
  H     -292.127    -226.632     148.193
  P     -291.996    -228.568     145.377
  C     -289.642    -229.389     144.585
  O     -291.040    -229.560     144.558
  O     -293.451    -228.847     145.232
  O     -291.447    -228.689     146.873
  H     -290.475    -228.716     146.944
  H     -289.168    -230.276     144.154
  H     -289.285    -229.266     145.614
  H     -289.362    -228.517     143.988
  H     -291.961    -230.109     150.988
  H     -292.484    -228.454     151.197
  H     -291.093    -229.049     152.073

 3  4  5  6  7  8  9  10  11  12  22  25  29  30  31  32 0
 6-311+G(2d,p)
 ****
 33  36  37 0
 6-311+G(2d,p)
 ****
 1  2  13  14  15  16  17  18  19  20  21  23  24  26 0
 3-21G
 ****
 27  28  34  35  38  39  40  41  42  43  44  45  46  47  48 0
 3-21G
 ****


