%nproc=1
%NoSave
%Mem=1900MB
#P OB98/GEN NMR

erre ene a

0 1
  C      117.444    -446.549     -91.144
  O      117.973    -446.985     -92.382
  H      116.917    -445.605     -91.300
  H      118.258    -446.382     -90.434
  H      116.740    -447.282     -90.740
  P      118.519    -448.492     -92.455
  C      120.794    -449.680     -92.066
  O      120.087    -448.447     -92.090
  C      122.146    -449.496     -91.380
  O      122.845    -448.394     -92.017
  C      122.054    -449.182     -89.879
  O      123.106    -449.864     -89.196
  C      122.280    -447.682     -89.817
  O      122.790    -447.258     -88.552
  C      123.246    -447.472     -90.980
  N      126.052    -443.371     -91.827
  C      126.421    -444.640     -91.417
  N      127.738    -444.842     -91.191
  N      125.575    -445.617     -91.241
  C      124.296    -445.280     -91.538
  C      123.800    -444.061     -91.946
  C      124.746    -442.978     -92.114
  O      124.479    -441.832     -92.446
  N      122.435    -444.114     -92.114
  C      122.109    -445.356     -91.806
  N      123.209    -446.106     -91.460
  O      118.505    -448.809     -94.026
  O      117.723    -449.496     -91.687
  H      122.020    -447.105     -87.964
  H      117.865    -449.523     -94.211
  H      126.740    -442.645     -91.938
  H      121.105    -445.758     -91.815
  H      124.283    -447.694     -90.702
  H      121.335    -447.158     -89.992
  H      128.452    -444.146     -91.353
  H      121.097    -449.473     -89.445
  H      128.042    -445.773     -90.924
  H      122.749    -450.398     -91.553
  H      120.946    -450.021     -93.096
  H      120.199    -450.426     -91.526
  P      122.682    -451.007     -88.154
  C      121.748    -451.090     -85.736
  O      122.411    -450.317     -86.723
  O      124.046    -451.822     -87.922
  O      121.595    -451.902     -88.646
  H      123.992    -452.688     -88.363
  H      121.636    -450.510     -84.844
  H      122.325    -451.966     -85.522
  H      120.783    -451.378     -86.097

 6  7  8  9  10  11  12  13  14  15  26  29  33  34 0
 6-311+G(2d,p)
 ****
 36  38  39  40  41 0
 6-311+G(2d,p)
 ****
 1  2  3  4  5  16  17  18  19  20  21  22  23  24  25 0
 3-21G
 ****
 27  28  30  31  32  35  37  42  43  44  45  46  47 0
 3-21G
 ****
 48  49 0
 3-21G
 ****


