%nproc=1
%NoSave
%Mem=1900MB
#P OB98/GEN NMR

erre ene a

0 1
  C      583.344     227.171      56.941
  O      582.317     227.276      57.907
  H      584.047     226.396      57.263
  H      583.886     228.117      56.838
  H      582.920     226.878      55.974
  P      581.314     228.528      57.811
  C      582.875     230.216      58.981
  O      582.258     229.831      57.755
  C      582.924     231.738      59.120
  O      583.511     232.117      60.385
  C      583.786     232.433      58.072
  O      583.290     232.348      56.755
  C      584.007     233.794      58.703
  O      582.918     234.689      58.477
  C      584.091     233.428      60.205
  N      585.457     233.480      60.712
  C      585.864     234.706      61.245
  O      585.151     235.705      61.273
  N      587.147     234.757      61.714
  C      588.060     233.739      61.667
  O      589.203     233.854      62.090
  C      587.585     232.480      61.062
  C      586.326     232.414      60.627
  O      580.253     228.596      58.870
  O      580.733     228.438      56.322
  H      583.129     235.514      58.948
  H      579.928     229.005      56.219
  H      587.456     235.629      62.115
  H      588.280     231.661      60.999
  H      585.950     231.494      60.175
  H      583.483     234.122      60.799
  H      584.906     234.283      58.320
  H      584.764     231.934      58.053
  H      581.898     232.115      59.101
  H      583.893     229.818      58.984
  H      582.323     229.777      59.817
  P      584.170     231.890      55.504
  C      583.465     233.932      54.017
  O      584.520     233.190      54.625
  O      583.719     230.657      54.785
  O      585.585     231.564      56.200
  H      585.982     230.820      55.705
  H      583.876     234.758      53.475
  H      582.803     234.297      54.774
  H      582.924     233.298      53.346

 6  7  8  9  10  11  12  13  14  15  16  26  31  32  33  34  35 0
 6-311+G(2d,p)
 ****
 36  37 0
 6-311+G(2d,p)
 ****
 1  2  3  4  5  17  18  19  20  21  22  23  24  25 0
 3-21G
 ****
 27  28  29  30  38  39  40  41  42  43  44  45 0
 3-21G
 ****


