%nproc=1
%NoSave
%Mem=1900MB
#P OB98/GEN NMR

erre ene a

0 1
  C      -26.832       3.828      17.208
  O      -26.031       4.994      17.138
  H      -27.883       4.126      17.247
  H      -26.603       3.251      18.108
  H      -26.674       3.208      16.322
  P      -24.440       4.825      17.228
  C      -24.049       6.758      18.902
  O      -24.033       5.352      18.684
  C      -24.681       7.072      20.254
  O      -26.068       6.682      20.260
  C      -24.033       6.318      21.407
  O      -22.790       6.895      21.753
  C      -25.118       6.421      22.460
  O      -25.096       7.698      23.110
  C      -26.396       6.259      21.604
  N      -26.912       4.895      21.613
  C      -27.757       4.565      22.678
  O      -28.034       5.401      23.536
  N      -28.248       3.285      22.750
  C      -27.940       2.420      21.836
  N      -28.460       1.170      21.967
  C      -27.064       2.730      20.691
  C      -26.587       3.972      20.645
  O      -23.634       5.415      16.111
  O      -24.235       3.241      17.344
  H      -25.942       7.765      23.595
  H      -24.150       2.842      16.459
  H      -26.839       1.978      19.950
  H      -25.938       4.285      19.834
  H      -27.187       6.928      21.963
  H      -25.005       5.656      23.227
  H      -23.911       5.262      21.147
  H      -24.634       8.156      20.415
  H      -29.048       0.998      22.776
  H      -24.641       7.204      18.096
  H      -28.361       0.444      21.275
  H      -23.034       7.168      18.854
  P      -21.436       6.045      21.636
  C      -21.034       6.442      24.152
  O      -21.162       5.475      23.113
  O      -20.289       6.757      21.001
  O      -21.897       4.739      20.831
  H      -22.043       4.938      19.874
  H      -20.855       5.944      25.082
  H      -21.936       7.013      24.221
  H      -20.215       7.095      23.933

 6  7  8  9  10  11  12  13  14  15  16  26  30  31  32  33  35 0
 6-311+G(2d,p)
 ****
 37  38 0
 6-311+G(2d,p)
 ****
 1  2  3  4  5  17  18  19  20  21  22  23  24  25 0
 3-21G
 ****
 27  28  29  34  36  39  40  41  42  43  44  45  46 0
 3-21G
 ****


