%nproc=1
%NoSave
%Mem=1900MB
#P OB98/GEN NMR

erre ene a

0 1
  C     1543.412    -308.311     316.433
  O     1543.798    -309.616     316.057
  H     1542.836    -307.854     315.620
  H     1544.289    -307.703     316.630
  H     1542.776    -308.357     317.326
  P     1544.729    -310.426     317.064
  C     1547.128    -310.031     318.028
  O     1546.200    -309.764     316.968
  C     1548.531    -310.186     317.444
  O     1548.936    -308.946     316.814
  C     1549.583    -310.493     318.498
  O     1549.613    -311.854     318.870
  C     1550.859    -310.096     317.729
  O     1551.317    -311.168     316.892
  C     1550.383    -308.898     316.879
  N     1550.856    -307.632     317.439
  C     1551.774    -306.937     316.641
  O     1552.150    -307.327     315.542
  N     1552.251    -305.766     317.173
  C     1551.963    -305.255     318.408
  O     1552.463    -304.245     318.844
  C     1551.009    -306.045     319.201
  C     1550.519    -307.184     318.705
  O     1544.903    -311.850     316.358
  O     1544.193    -310.559     318.453
  H     1544.373    -312.514     316.832
  H     1552.047    -310.796     316.354
  H     1552.905    -305.258     316.612
  H     1550.756    -305.686     320.195
  H     1549.821    -307.797     319.285
  H     1550.746    -308.988     315.855
  H     1551.667    -309.848     318.408
  H     1549.487    -309.826     319.358
  H     1548.492    -310.976     316.672
  H     1546.838    -310.947     318.543
  H     1547.088    -309.196     318.733
  P     1550.087    -312.185     320.374
  C     1552.340    -311.717     321.624
  O     1551.658    -311.950     320.400
  O     1549.910    -313.786     320.385
  O     1549.278    -311.492     321.421
  H     1550.014    -314.170     319.468
  H     1553.384    -311.584     321.431
  H     1552.202    -312.555     322.274
  H     1551.948    -310.837     322.089

 6  7  8  9  10  11  12  13  14  15  16  27  31  32  33  34  35 0
 6-311+G(2d,p)
 ****
 36  37 0
 6-311+G(2d,p)
 ****
 1  2  3  4  5  17  18  19  20  21  22  23  24  25 0
 3-21G
 ****
 26  28  29  30  38  39  40  41  42  43  44  45 0
 3-21G
 ****


