%nproc=1
%NoSave
%Mem=1900MB
#P OB98/GEN NMR

erre ene a

0 1
  C     -253.901     272.093     620.009
  O     -253.320     271.198     619.064
  P     -252.150     271.581     618.043
  C     -250.199     270.767     619.597
  O     -250.816     271.833     618.892
  C     -249.006     270.154     618.835
  O     -247.895     271.090     618.850
  C     -248.514     268.889     619.539
  O     -249.155     267.654     619.295
  C     -247.018     268.873     619.290
  O     -246.657     268.096     618.151
  C     -246.679     270.346     619.063
  N     -242.071     271.474     620.985
  C     -242.393     270.789     619.833
  N     -241.357     270.294     619.125
  N     -243.615     270.589     619.420
  C     -244.558     271.055     620.275
  C     -244.371     271.736     621.454
  C     -243.005     272.001     621.873
  O     -242.666     272.618     622.876
  N     -245.560     272.043     622.059
  C     -246.470     271.528     621.256
  N     -245.905     270.927     620.152
  O     -252.506     272.598     617.013
  O     -251.851     270.192     617.281
  H     -245.681     268.013     618.138
  H     -251.582     270.431     616.366
  H     -241.115     271.619     621.242
  H     -247.537     271.560     621.421
  H     -246.073     270.478     618.155
  H     -246.491     268.428     620.146
  H     -240.401     270.311     619.444
  H     -248.632     269.056     620.619
  H     -241.590     269.617     618.396
  H     -249.257     270.000     617.782
  H     -250.971     270.015     619.769
  H     -249.872     271.110     620.583
  P     -249.041     266.329     620.202
  C     -250.879     266.772     621.934
  O     -249.480     266.713     621.687
  O     -247.467     266.095     620.345
  O     -249.709     265.120     619.635
  H     -247.289     265.181     620.646
  H     -251.058     267.332     622.855
  H     -251.273     265.761     622.050
  H     -251.397     267.275     621.112
  H     -254.659     271.582     620.565
  H     -254.335     272.924     619.493
  H     -253.144     272.445     620.679

 3  4  5  6  7  8  9  10  11  12  23  26  30  31 0
 6-311+G(2d,p)
 ****
 33  35  36  37  38 0
 6-311+G(2d,p)
 ****
 1  2  13  14  15  16  17  18  19  20  21  22  24  25 0
 3-21G
 ****
 27  28  29  32  34  39  40  41  42  43  44  45  46  47  48  49 0
 3-21G
 ****


