%nproc=1
%NoSave
%Mem=1900MB
#P OB98/GEN NMR

erre ene a

0 1
  C      206.706     378.792     612.720
  O      206.792     379.978     613.481
  H      206.921     379.035     611.672
  H      205.695     378.376     612.776
  H      207.437     378.053     613.062
  P      206.515     379.892     615.061
  C      208.323     381.751     615.081
  O      207.110     381.273     615.643
  C      208.277     383.270     614.951
  O      207.874     383.891     616.196
  C      209.620     383.924     614.622
  O      210.030     383.732     613.279
  C      209.280     385.376     614.919
  O      208.479     385.913     613.858
  C      208.460     385.221     616.225
  N      209.273     385.386     617.428
  C      208.933     386.452     618.273
  O      207.984     387.193     618.004
  N      209.669     386.659     619.413
  C      210.697     385.900     619.667
  N      211.415     386.161     620.800
  C      211.114     384.788     618.790
  C      210.364     384.594     617.703
  O      206.991     378.650     615.744
  O      204.941     380.134     615.201
  H      207.649     385.395     613.842
  H      204.710     380.083     616.163
  H      211.987     384.204     619.021
  H      210.611     383.796     617.006
  H      207.634     385.944     616.253
  H      210.170     386.012     615.020
  H      210.394     383.591     615.322
  H      207.515     383.515     614.201
  H      211.104     386.931     621.375
  H      208.459     381.280     614.104
  H      212.256     385.669     621.032
  H      209.167     381.480     615.730
  P      211.615     383.624     613.012
  C      210.896     382.500     610.770
  O      211.792     383.366     611.446
  O      212.002     382.227     613.680
  O      212.429     384.762     613.549
  H      212.376     382.363     614.579
  H      211.164     382.447     609.735
  H      209.899     382.877     610.861
  H      210.949     381.523     611.203

 6  7  8  9  10  11  12  13  14  15  16  26  30  31  32  33  35 0
 6-311+G(2d,p)
 ****
 37  38 0
 6-311+G(2d,p)
 ****
 1  2  3  4  5  17  18  19  20  21  22  23  24  25 0
 3-21G
 ****
 27  28  29  34  36  39  40  41  42  43  44  45  46 0
 3-21G
 ****


