%nproc=1
%NoSave
%Mem=1900MB
#P OB98/GEN NMR

erre ene a

0 1
  C       37.843     -82.983      40.051
  O       38.768     -82.960      41.140
  P       39.848     -81.773      41.147
  C       38.907     -79.858      42.619
  O       39.749     -80.999      42.551
  C       38.300     -79.680      44.016
  O       37.080     -80.454      44.155
  C       39.239     -80.106      45.148
  O       38.985     -79.245      46.261
  C       38.749     -81.500      45.491
  O       39.156     -81.882      46.802
  C       37.234     -81.324      45.296
  N       36.526     -82.590      45.113
  C       35.889     -83.129      46.232
  O       35.995     -82.582      47.331
  N       35.184     -84.298      46.093
  C       35.162     -84.904      44.947
  N       34.449     -86.060      44.874
  C       35.870     -84.401      43.753
  C       36.520     -83.250      43.907
  O       39.255     -80.726      40.092
  O       41.223     -82.214      40.762
  H       40.131     -82.005      46.795
  H       39.946     -80.466      39.455
  H       35.841     -84.951      42.824
  H       37.065     -82.801      43.090
  H       36.790     -80.816      46.164
  H       39.147     -82.229      44.775
  H       40.298     -80.063      44.878
  H       38.032     -78.623      44.138
  H       33.970     -86.369      45.712
  H       38.100     -79.950      41.889
  H       34.365     -86.613      44.034
  H       39.482     -78.974      42.325
  P       39.807     -77.872      46.362
  C       38.218     -76.409      44.971
  O       38.693     -76.722      46.267
  O       40.472     -77.790      44.903
  O       40.832     -77.733      47.434
  H       41.066     -77.018      44.856
  H       37.385     -75.707      45.064
  H       37.865     -77.311      44.465
  H       39.012     -75.935      44.386
  H       37.181     -83.816      40.163
  H       38.379     -83.074      39.129
  H       37.276     -82.076      40.046

 3  4  5  6  7  8  9  10  11  12  13  21  23  27  28  29  30  32 0
 6-311+G(2d,p)
 ****
 34  35 0
 6-311+G(2d,p)
 ****
 1  2  14  15  16  17  18  19  20  22  24  25  26 0
 3-21G
 ****
 31  33  36  37  38  39  40  41  42  43  44  45  46 0
 3-21G
 ****


