%nproc=1
%NoSave
%Mem=1900MB
#P OB98/GEN NMR

erre ene a

0 1
  C      112.180       4.332     -84.924
  O      112.871       3.324     -85.632
  H      112.592       4.419     -83.916
  H      112.318       5.284     -85.442
  H      111.111       4.109     -84.873
  P      112.566       1.802     -85.228
  C      110.451       1.344     -86.660
  O      111.845       1.133     -86.499
  C      109.711       0.009     -86.710
  O      108.281       0.268     -86.619
  C      109.960      -0.805     -87.990
  O      110.041      -2.189     -87.638
  C      108.697      -0.574     -88.799
  O      108.434      -1.627     -89.721
  C      107.653      -0.451     -87.695
  N      103.070      -1.138     -89.784
  C      103.914      -1.988     -89.164
  N      105.100      -1.710     -88.585
  C      105.352      -0.391     -88.630
  C      104.585       0.597     -89.221
  C      103.395       0.175     -89.839
  N      102.562       1.021     -90.533
  N      105.210       1.824     -89.108
  C      106.345       1.574     -88.485
  N      106.476       0.250     -88.178
  O      111.378       1.961     -84.164
  O      113.719       1.041     -84.668
  H      109.069      -1.565     -90.461
  H      111.752       2.088     -83.274
  H      103.605      -3.030     -89.138
  H      107.112       2.302     -88.261
  H      107.324      -1.425     -87.314
  H      108.789       0.362     -89.362
  H      110.865      -0.508     -88.533
  H      109.986      -0.574     -85.823
  H      110.277       1.881     -87.598
  H      101.789       0.611     -91.033
  H      102.846       1.979     -90.675
  H      110.079       1.954     -85.831
  P      111.398      -2.964     -87.995
  C      112.492      -3.005     -85.633
  O      111.896      -3.748     -86.691
  O      112.466      -1.781     -88.146
  O      111.314      -3.790     -89.237
  H      113.134      -2.012     -88.816
  H      112.768      -3.670     -84.841
  H      111.792      -2.284     -85.265
  H      113.364      -2.503     -85.997

 6  7  8  9  10  11  12  13  14  15  25  28  32  33  34  35 0
 6-311+G(2d,p)
 ****
 36  39  40 0
 6-311+G(2d,p)
 ****
 1  2  3  4  5  16  17  18  19  20  21  22  23  24 0
 3-21G
 ****
 26  27  29  30  31  37  38  41  42  43  44  45  46  47 0
 3-21G
 ****
 48 0
 3-21G
 ****


