%nproc=1
%NoSave
%Mem=1900MB
#P OB98/GEN NMR

erre ene a

0 1
  C      -50.880     -24.708      74.115
  O      -50.312     -23.429      74.308
  H      -50.094     -25.453      73.970
  H      -51.457     -24.976      75.005
  H      -51.549     -24.699      73.249
  P      -49.389     -22.862      73.123
  C      -47.198     -23.479      74.384
  O      -48.011     -23.679      73.236
  C      -46.181     -24.610      74.484
  O      -46.854     -25.861      74.756
  C      -45.386     -24.838      73.203
  O      -44.295     -23.943      73.073
  C      -44.908     -26.264      73.417
  O      -43.811     -26.275      74.348
  C      -46.149     -26.915      74.046
  N      -46.661     -30.582      70.510
  C      -45.653     -30.281      71.358
  N      -45.604     -29.302      72.284
  C      -46.747     -28.599      72.295
  C      -47.862     -28.793      71.496
  C      -47.791     -29.840      70.561
  N      -48.804     -30.130      69.673
  N      -48.835     -27.856      71.785
  C      -48.321     -27.125      72.753
  N      -47.048     -27.514      73.073
  O      -48.981     -21.398      73.625
  O      -50.000     -22.865      71.761
  H      -43.574     -27.209      74.498
  H      -48.607     -20.878      72.888
  H      -44.769     -30.908      71.279
  H      -48.823     -26.301      73.244
  H      -45.893     -27.694      74.774
  H      -44.552     -26.733      72.496
  H      -46.032     -24.808      72.318
  H      -45.513     -24.401      75.330
  H      -47.833     -23.474      75.276
  H      -48.601     -30.798      68.946
  H      -49.584     -29.494      69.602
  H      -46.684     -22.516      74.302
  P      -44.226     -23.048      71.740
  C      -43.141     -25.186      70.741
  O      -43.989     -24.066      70.522
  O      -42.816     -22.306      71.881
  O      -45.358     -22.088      71.577
  H      -42.846     -21.420      71.472
  H      -43.081     -25.768      69.845
  H      -43.541     -25.787      71.531
  H      -42.163     -24.846      71.012

 6  7  8  9  10  11  12  13  14  15  25  28  32  33  34  35 0
 6-311+G(2d,p)
 ****
 36  39  40 0
 6-311+G(2d,p)
 ****
 1  2  3  4  5  16  17  18  19  20  21  22  23  24 0
 3-21G
 ****
 26  27  29  30  31  37  38  41  42  43  44  45  46  47 0
 3-21G
 ****
 48 0
 3-21G
 ****


