%nproc=1
%NoSave
%Mem=1900MB
#P OB98/GEN NMR

erre ene a

0 1
  C     1054.582      65.934     334.204
  O     1054.121      67.255     333.916
  P     1052.833      67.765     334.726
  C     1051.022      66.918     333.084
  O     1051.605      66.808     334.369
  C     1049.581      66.358     333.063
  O     1048.950      66.617     331.772
  C     1049.518      64.845     333.293
  O     1048.300      64.561     334.005
  C     1049.403      64.273     331.900
  O     1048.885      62.946     331.899
  C     1048.510      65.340     331.242
  N     1045.819      65.788     326.910
  C     1045.471      65.856     328.217
  N     1046.240      65.704     329.324
  C     1047.525      65.496     328.971
  C     1048.041      65.390     327.689
  C     1047.122      65.539     326.632
  N     1047.495      65.434     325.305
  N     1049.394      65.127     327.728
  C     1049.689      65.077     329.017
  N     1048.594      65.317     329.789
  O     1052.459      69.141     333.988
  O     1053.072      67.987     336.181
  H     1047.938      63.000     332.122
  H     1052.689      69.899     334.549
  H     1044.404      66.051     328.402
  H     1050.675      64.859     329.422
  H     1047.436      65.204     331.516
  H     1050.387      64.256     331.425
  H     1050.373      64.428     333.841
  H     1048.996      66.869     333.812
  H     1051.616      66.378     332.336
  H     1046.773      65.544     324.604
  H     1048.450      65.215     325.063
  H     1051.030      67.982     332.775
  P     1048.370      64.626     335.606
  C     1048.184      62.051     335.920
  O     1048.972      63.218     336.072
  O     1046.840      64.531     336.051
  O     1049.049      65.841     336.147
  H     1046.722      64.957     336.922
  H     1048.836      61.233     335.572
  H     1047.376      62.184     335.199
  H     1047.754      61.779     336.886
  H     1055.440      65.717     333.603
  H     1053.806      65.230     333.986
  H     1054.845      65.866     335.239

 3  4  5  6  7  8  9  10  11  12  22  25  29  30  31  32 0
 6-311+G(2d,p)
 ****
 33  36  37 0
 6-311+G(2d,p)
 ****
 1  2  13  14  15  16  17  18  19  20  21  23  24  26 0
 3-21G
 ****
 27  28  34  35  38  39  40  41  42  43  44  45  46  47  48 0
 3-21G
 ****


