%nproc=1
%NoSave
%Mem=1900MB
#P OB98/GEN NMR

erre ene a

0 1
  C     -526.676     909.017     -33.721
  O     -525.988     907.804     -33.483
  H     -527.751     908.817     -33.730
  H     -526.384     909.413     -34.697
  H     -526.457     909.754     -32.941
  P     -524.452     907.908     -33.036
  C     -523.370     907.735     -35.398
  O     -523.653     908.561     -34.273
  C     -522.976     908.589     -36.600
  O     -521.602     909.029     -36.427
  C     -523.064     907.852     -37.942
  O     -523.508     908.774     -38.954
  C     -521.613     907.500     -38.234
  O     -521.366     907.303     -39.625
  C     -520.904     908.731     -37.654
  N     -516.374     909.413     -39.702
  C     -517.602     909.947     -40.046
  N     -517.646     910.738     -41.143
  N     -518.699     909.722     -39.369
  C     -518.513     908.927     -38.289
  C     -517.353     908.338     -37.846
  C     -516.146     908.583     -38.607
  O     -515.032     908.126     -38.369
  N     -517.592     907.555     -36.736
  C     -518.891     907.659     -36.530
  N     -519.500     908.476     -37.444
  O     -523.982     906.375     -33.055
  O     -524.212     908.548     -31.709
  H     -520.438     907.038     -39.737
  H     -524.058     905.995     -32.158
  H     -515.568     909.611     -40.261
  H     -519.440     907.144     -35.750
  H     -520.978     909.608     -38.311
  H     -521.325     906.601     -37.696
  H     -516.843     910.984     -41.689
  H     -523.715     906.972     -37.936
  H     -518.538     911.162     -41.381
  H     -523.600     909.491     -36.611
  H     -524.258     907.145     -35.645
  H     -522.558     907.041     -35.133
  P     -525.016     908.639     -39.477
  C     -524.407     906.910     -41.322
  O     -525.197     907.210     -40.181
  O     -525.072     909.663     -40.701
  O     -526.051     908.975     -38.440
  H     -525.957     910.078     -40.755
  H     -524.644     905.927     -41.671
  H     -523.371     906.955     -41.060
  H     -524.611     907.622     -42.094

 6  7  8  9  10  11  12  13  14  15  26  29  33  34 0
 6-311+G(2d,p)
 ****
 36  38  39  40  41 0
 6-311+G(2d,p)
 ****
 1  2  3  4  5  16  17  18  19  20  21  22  23  24  25 0
 3-21G
 ****
 27  28  30  31  32  35  37  42  43  44  45  46  47 0
 3-21G
 ****
 48  49 0
 3-21G
 ****


