%nproc=1
%NoSave
%Mem=1900MB
#P OB98/GEN NMR

erre ene a

0 1
  C     -429.266    -106.568     429.159
  O     -430.339    -105.706     429.490
  H     -429.552    -107.595     429.420
  H     -428.368    -106.309     429.722
  H     -429.062    -106.521     428.088
  P     -430.112    -104.126     429.346
  C     -429.750    -103.438     431.824
  O     -429.146    -103.720     430.559
  C     -428.744    -102.773     432.756
  O     -427.599    -103.628     432.947
  C     -428.197    -101.456     432.205
  O     -429.147    -100.415     432.337
  C     -426.934    -101.306     433.037
  O     -427.228    -100.783     434.333
  C     -426.440    -102.770     433.115
  N     -425.412    -103.079     432.127
  C     -424.294    -102.229     432.111
  O     -424.212    -101.300     432.911
  N     -423.316    -102.464     431.177
  C     -423.423    -103.450     430.346
  N     -422.413    -103.621     429.448
  C     -424.581    -104.371     430.338
  C     -425.528    -104.122     431.241
  O     -431.338    -103.274     429.224
  O     -429.159    -103.998     428.065
  H     -427.834    -100.031     434.185
  H     -429.689    -103.916     427.250
  H     -424.623    -105.191     429.621
  H     -426.408    -104.758     431.302
  H     -426.034    -102.978     434.114
  H     -426.227    -100.628     432.558
  H     -427.900    -101.583     431.145
  H     -429.223    -102.617     433.733
  H     -421.650    -102.960     429.485
  H     -430.077    -104.400     432.244
  H     -422.353    -104.407     428.813
  H     -430.632    -102.798     431.697
  P     -429.192     -99.212     431.279
  C     -427.826     -97.593     432.764
  O     -427.857     -98.357     431.548
  O     -430.462     -98.430     431.252
  O     -428.873     -99.943     429.880
  H     -429.641    -100.472     429.557
  H     -426.895     -97.070     432.833
  H     -427.928     -98.251     433.601
  H     -428.632     -96.889     432.763

 6  7  8  9  10  11  12  13  14  15  16  26  30  31  32  33  35 0
 6-311+G(2d,p)
 ****
 37  38 0
 6-311+G(2d,p)
 ****
 1  2  3  4  5  17  18  19  20  21  22  23  24  25 0
 3-21G
 ****
 27  28  29  34  36  39  40  41  42  43  44  45  46 0
 3-21G
 ****


