%nproc=1
%NoSave
%Mem=1900MB
#P OB98/GEN NMR

erre ene a

0 1
  C      318.126     118.889     844.820
  O      317.818     119.621     843.649
  H      317.202     118.674     845.365
  H      318.596     117.943     844.536
  H      318.815     119.450     845.457
  P      317.404     121.159     843.825
  C      318.798     122.231     841.913
  O      317.514     121.830     842.367
  C      318.864     122.225     840.383
  O      318.762     120.849     839.926
  C      317.742     123.031     839.707
  O      318.291     123.694     838.564
  C      316.774     121.949     839.232
  O      315.990     122.362     838.122
  C      317.741     120.805     838.917
  N      315.179     117.539     835.964
  C      315.982     118.582     835.674
  N      316.676     119.371     836.525
  C      316.515     118.954     837.794
  C      315.730     117.902     838.246
  C      315.025     117.192     837.268
  N      314.141     116.170     837.571
  N      315.792     117.827     839.631
  C      316.574     118.820     839.997
  N      317.036     119.531     838.926
  O      318.660     121.767     844.613
  O      316.118     121.401     844.546
  H      316.576     122.705     837.425
  H      318.530     121.655     845.573
  H      316.079     118.815     834.616
  H      316.815     119.092     841.021
  H      318.220     120.917     837.931
  H      316.100     121.681     840.054
  H      317.258     123.762     840.363
  H      319.847     122.590     840.073
  H      319.551     121.532     842.307
  H      313.602     115.788     836.815
  H      313.936     115.969     838.532
  H      319.023     123.237     842.297
  P      318.049     125.275     838.441
  C      320.456     125.731     837.534
  O      319.052     125.857     837.327
  O      318.646     125.838     839.812
  O      316.610     125.656     838.252
  H      318.140     126.628     840.098
  H      320.979     126.165     836.708
  H      320.713     124.695     837.614
  H      320.730     126.238     838.436

 6  7  8  9  10  11  12  13  14  15  25  28  32  33  34  35 0
 6-311+G(2d,p)
 ****
 36  39  40 0
 6-311+G(2d,p)
 ****
 1  2  3  4  5  16  17  18  19  20  21  22  23  24 0
 3-21G
 ****
 26  27  29  30  31  37  38  41  42  43  44  45  46  47 0
 3-21G
 ****
 48 0
 3-21G
 ****


