%nproc=1
%NoSave
%Mem=1900MB
#P OB98/GEN NMR

erre ene a

0 1
  C      -73.231     -42.368    -315.091
  O      -72.192     -41.541    -314.610
  H      -73.023     -42.627    -316.133
  H      -74.183     -41.831    -315.048
  H      -73.296     -43.289    -314.505
  P      -72.200     -41.213    -313.040
  C      -72.113     -38.702    -313.696
  O      -72.722     -39.702    -312.892
  C      -73.167     -37.732    -314.221
  O      -74.214     -38.452    -314.910
  C      -73.858     -36.911    -313.138
  O      -73.087     -35.776    -312.763
  C      -75.125     -36.493    -313.869
  O      -74.830     -35.420    -314.786
  C      -75.473     -37.773    -314.645
  N      -80.295     -38.768    -313.433
  C      -79.762     -37.734    -314.178
  N      -80.639     -36.826    -314.662
  N      -78.485     -37.592    -314.423
  C      -77.725     -38.567    -313.867
  C      -78.135     -39.644    -313.113
  C      -79.550     -39.789    -312.855
  O      -80.076     -40.700    -312.221
  N      -77.074     -40.423    -312.731
  C      -76.023     -39.809    -313.237
  N      -76.363     -38.674    -313.929
  O      -70.642     -41.101    -312.676
  O      -72.885     -42.220    -312.179
  H      -74.501     -34.676    -314.251
  H      -70.502     -41.459    -311.779
  H      -81.283     -38.822    -313.265
  H      -75.000     -40.146    -313.133
  H      -75.943     -37.559    -315.611
  H      -75.900     -36.134    -313.193
  H      -81.627     -36.847    -314.468
  H      -74.122     -37.527    -312.271
  H      -80.275     -36.077    -315.239
  H      -72.685     -37.074    -314.957
  H      -71.605     -39.179    -314.540
  H      -71.372     -38.165    -313.092
  P      -72.414     -35.784    -311.303
  C      -74.722     -34.849    -310.570
  O      -73.635     -35.712    -310.265
  O      -71.757     -34.326    -311.202
  O      -71.417     -36.867    -311.076
  H      -71.031     -34.332    -310.549
  H      -75.453     -34.908    -309.791
  H      -75.164     -35.146    -311.498
  H      -74.367     -33.843    -310.651

 6  7  8  9  10  11  12  13  14  15  26  29  33  34 0
 6-311+G(2d,p)
 ****
 36  38  39  40  41 0
 6-311+G(2d,p)
 ****
 1  2  3  4  5  16  17  18  19  20  21  22  23  24  25 0
 3-21G
 ****
 27  28  30  31  32  35  37  42  43  44  45  46  47 0
 3-21G
 ****
 48  49 0
 3-21G
 ****


