%nproc=1
%NoSave
%Mem=1900MB
#P OB98/GEN NMR

erre ene a

0 1
  C      519.942    -169.918      77.267
  O      520.358    -168.568      77.327
  H      519.540    -170.115      76.269
  H      519.157    -170.105      78.004
  H      520.786    -170.592      77.444
  P      521.129    -168.054      78.634
  C      522.922    -166.544      77.554
  O      521.708    -166.597      78.296
  C      522.877    -165.371      76.573
  O      522.078    -165.719      75.419
  C      522.243    -164.111      77.151
  O      523.136    -163.444      78.023
  C      521.908    -163.352      75.876
  O      523.062    -162.673      75.360
  C      521.466    -164.494      74.935
  N      520.018    -164.631      74.840
  C      519.333    -163.571      74.243
  O      519.888    -162.550      73.838
  N      517.974    -163.718      74.154
  C      517.241    -164.737      74.692
  O      516.014    -164.776      74.660
  C      518.011    -165.807      75.330
  C      519.342    -165.713      75.375
  O      522.118    -169.004      79.218
  O      519.945    -167.734      79.669
  H      523.254    -161.940      75.983
  H      519.905    -168.437      80.342
  H      517.459    -162.957      73.739
  H      517.463    -166.644      75.753
  H      519.929    -166.491      75.846
  H      521.869    -164.327      73.925
  H      521.138    -162.599      76.036
  H      521.314    -164.362      77.670
  H      523.902    -165.173      76.230
  H      523.035    -167.482      76.996
  H      523.760    -166.436      78.252
  P      522.733    -162.025      78.649
  C      524.282    -162.270      80.688
  O      523.971    -161.508      79.522
  O      521.409    -161.989      79.342
  O      522.741    -161.038      77.389
  H      521.851    -160.658      77.269
  H      525.121    -161.832      81.187
  H      524.520    -163.274      80.405
  H      523.438    -162.275      81.346

 6  7  8  9  10  11  12  13  14  15  16  26  31  32  33  34  35 0
 6-311+G(2d,p)
 ****
 36  37 0
 6-311+G(2d,p)
 ****
 1  2  3  4  5  17  18  19  20  21  22  23  24  25 0
 3-21G
 ****
 27  28  29  30  38  39  40  41  42  43  44  45 0
 3-21G
 ****


