%nproc=1
%NoSave
%Mem=1900MB
#P OB98/GEN NMR

erre ene a

0 1
  C      231.438    -274.315    -543.558
  O      230.153    -274.337    -542.961
  P      230.083    -274.151    -541.367
  C      230.322    -271.552    -541.217
  O      230.922    -272.827    -541.033
  C      229.817    -271.023    -539.876
  O      228.601    -271.710    -539.490
  C      230.792    -271.206    -538.720
  O      231.766    -270.180    -538.726
  C      229.854    -271.158    -537.516
  O      229.534    -269.799    -537.169
  C      228.614    -271.898    -538.046
  N      226.531    -275.424    -535.086
  C      226.454    -274.046    -535.017
  N      225.661    -273.537    -534.049
  N      227.081    -273.239    -535.831
  C      227.842    -273.887    -536.747
  C      228.018    -275.243    -536.904
  C      227.270    -276.121    -536.030
  O      227.232    -277.348    -536.113
  N      228.887    -275.526    -537.927
  C      229.210    -274.338    -538.404
  N      228.589    -273.315    -537.738
  O      231.005    -275.344    -540.826
  O      228.711    -274.175    -540.783
  H      229.192    -269.336    -537.958
  H      230.455    -276.103    -540.546
  H      226.013    -275.994    -534.446
  H      229.872    -274.172    -539.238
  H      227.684    -271.468    -537.661
  H      230.301    -271.611    -536.628
  H      225.166    -274.097    -533.370
  H      231.271    -272.194    -538.773
  H      225.594    -272.529    -533.979
  H      229.569    -269.962    -540.005
  H      229.483    -271.645    -541.908
  H      231.059    -270.870    -541.647
  P      233.213    -270.524    -538.123
  C      234.310    -270.338    -540.468
  O      234.092    -271.129    -539.320
  O      232.930    -271.790    -537.182
  O      233.851    -269.412    -537.364
  H      233.503    -271.746    -536.391
  H      235.272    -270.610    -540.909
  H      234.318    -269.268    -540.234
  H      233.520    -270.536    -541.199
  H      231.342    -274.449    -544.615
  H      232.034    -275.105    -543.151
  H      231.908    -273.375    -543.358

 3  4  5  6  7  8  9  10  11  12  23  26  30  31 0
 6-311+G(2d,p)
 ****
 33  35  36  37  38 0
 6-311+G(2d,p)
 ****
 1  2  13  14  15  16  17  18  19  20  21  22  24  25 0
 3-21G
 ****
 27  28  29  32  34  39  40  41  42  43  44  45  46  47  48  49 0
 3-21G
 ****


