%nproc=1
%NoSave
%Mem=1900MB
#P OB98/GEN NMR

erre ene a

0 1
  C       93.008     223.566    -192.623
  O       91.614     223.328    -192.657
  H       93.510     222.766    -193.175
  H       93.368     223.555    -191.592
  H       93.250     224.521    -193.096
  P       90.630     224.412    -192.002
  C       89.566     225.424    -194.113
  O       89.380     224.561    -193.001
  C       88.237     225.684    -194.822
  O       88.429     226.734    -195.802
  C       87.680     224.455    -195.550
  O       86.259     224.452    -195.410
  C       88.048     224.710    -196.999
  O       87.163     224.054    -197.907
  C       87.985     226.234    -197.078
  N       88.045     227.513    -201.965
  C       86.998     227.097    -201.165
  N       85.790     226.980    -201.756
  N       87.126     226.818    -199.895
  C       88.388     226.992    -199.430
  C       89.506     227.396    -200.118
  C       89.355     227.689    -201.529
  O       90.245     228.047    -202.291
  N       90.610     227.425    -199.303
  C       90.159     227.038    -198.125
  N       88.819     226.753    -198.152
  O       91.268     225.707    -191.614
  O       90.003     223.655    -190.741
  H       86.255     224.356    -197.690
  H       90.451     223.927    -189.919
  H       87.893     227.705    -202.940
  H       90.756     226.939    -197.227
  H       86.966     226.600    -197.261
  H       89.066     224.348    -197.191
  H       85.612     227.194    -202.726
  H       88.094     223.513    -195.177
  H       85.002     226.699    -201.183
  H       87.519     226.063    -194.085
  H       90.267     224.946    -194.806
  H       89.999     226.371    -193.770
  P       85.552     223.178    -194.739
  C       85.807     223.931    -192.287
  O       84.901     223.640    -193.348
  O       86.383     221.939    -194.673
  O       84.260     222.960    -195.670
  H       84.035     222.008    -195.677
  H       85.256     224.226    -191.418
  H       86.459     224.726    -192.583
  H       86.386     223.059    -192.063

 6  7  8  9  10  11  12  13  14  15  26  29  33  34 0
 6-311+G(2d,p)
 ****
 36  38  39  40  41 0
 6-311+G(2d,p)
 ****
 1  2  3  4  5  16  17  18  19  20  21  22  23  24  25 0
 3-21G
 ****
 27  28  30  31  32  35  37  42  43  44  45  46  47 0
 3-21G
 ****
 48  49 0
 3-21G
 ****


