%nproc=1
%NoSave
%Mem=1900MB
#P OB98/GEN NMR

erre ene a

0 1
  C     -117.563    -338.027     995.144
  O     -118.791    -338.713     995.253
  H     -117.615    -337.113     995.747
  H     -117.394    -337.744     994.102
  H     -116.736    -338.642     995.506
  P     -118.815    -340.247     994.789
  C     -120.451    -341.281     996.519
  O     -119.103    -341.123     996.106
  C     -120.611    -340.884     997.988
  O     -120.165    -339.505     998.147
  C     -122.052    -340.971     998.514
  O     -122.025    -341.417     999.874
  C     -122.505    -339.525     998.497
  O     -123.576    -339.283     999.402
  C     -121.205    -338.816     998.864
  N     -123.321    -334.470    1000.227
  C     -123.296    -335.695    1000.865
  N     -123.998    -335.803    1002.016
  N     -122.644    -336.738    1000.413
  C     -121.975    -336.484     999.258
  C     -121.919    -335.323     998.528
  C     -122.660    -334.183     999.034
  O     -122.739    -333.078     998.504
  N     -121.182    -335.489     997.386
  C     -120.801    -336.763     997.410
  N     -121.267    -337.407     998.528
  O     -117.276    -340.540     994.466
  O     -119.695    -340.548     993.620
  H     -124.413    -339.561     998.976
  H     -117.108    -340.413     993.511
  H     -123.848    -333.713    1000.614
  H     -120.222    -337.265     996.653
  H     -120.989    -338.885     999.936
  H     -122.835    -339.249     997.486
  H     -124.499    -335.046    1002.443
  H     -122.699    -341.636     997.927
  H     -123.957    -336.687    1002.513
  H     -119.936    -341.507     998.597
  H     -120.740    -342.335     996.406
  H     -121.098    -340.668     995.887
  P     -121.599    -342.937    1000.161
  C     -119.609    -343.077    1001.840
  O     -120.029    -342.984    1000.483
  O     -121.699    -343.621     998.720
  O     -122.477    -343.630    1001.158
  H     -121.996    -344.543     998.808
  H     -118.540    -343.098    1001.882
  H     -120.000    -343.973    1002.274
  H     -119.971    -342.230    1002.384

 6  7  8  9  10  11  12  13  14  15  26  29  33  34 0
 6-311+G(2d,p)
 ****
 36  38  39  40  41 0
 6-311+G(2d,p)
 ****
 1  2  3  4  5  16  17  18  19  20  21  22  23  24  25 0
 3-21G
 ****
 27  28  30  31  32  35  37  42  43  44  45  46  47 0
 3-21G
 ****
 48  49 0
 3-21G
 ****


