%nproc=1
%NoSave
%Mem=1900MB
#P OB98/GEN NMR

erre ene a

0 1
  C     -561.554     471.188    -520.216
  O     -562.400     472.187    -520.749
  H     -560.595     471.647    -519.947
  H     -561.370     470.406    -520.963
  H     -561.994     470.752    -519.318
  P     -563.849     471.763    -521.285
  C     -564.716     474.148    -520.809
  O     -564.576     473.108    -521.769
  C     -564.791     475.513    -521.506
  O     -563.492     475.781    -522.090
  C     -565.834     475.541    -522.629
  O     -566.763     476.622    -522.511
  C     -564.991     475.475    -523.897
  O     -565.592     476.047    -525.039
  C     -563.673     476.136    -523.469
  N     -562.521     475.726    -524.265
  C     -562.450     476.187    -525.578
  O     -563.272     476.937    -526.110
  N     -561.362     475.769    -526.298
  C     -560.369     474.946    -525.854
  O     -559.410     474.613    -526.536
  C     -560.512     474.466    -524.471
  C     -561.562     474.874    -523.752
  O     -564.658     470.910    -520.362
  O     -563.543     471.002    -522.665
  H     -565.891     476.945    -524.805
  H     -563.614     470.040    -522.528
  H     -561.294     476.112    -527.246
  H     -559.747     473.809    -524.080
  H     -561.698     474.545    -522.721
  H     -563.751     477.220    -523.531
  H     -564.801     474.417    -524.129
  H     -566.476     474.653    -522.586
  H     -564.984     476.284    -520.751
  H     -563.851     474.107    -520.138
  H     -565.627     473.984    -520.221
  P     -568.350     476.463    -522.527
  C     -568.976     478.833    -521.599
  O     -568.999     477.917    -522.690
  O     -568.924     475.576    -521.471
  O     -568.634     475.766    -523.961
  H     -569.414     475.187    -523.840
  H     -569.452     479.746    -521.890
  H     -567.962     479.032    -521.322
  H     -569.497     478.409    -520.766

 6  7  8  9  10  11  12  13  14  15  16  26  31  32  33  34  35 0
 6-311+G(2d,p)
 ****
 36  37 0
 6-311+G(2d,p)
 ****
 1  2  3  4  5  17  18  19  20  21  22  23  24  25 0
 3-21G
 ****
 27  28  29  30  38  39  40  41  42  43  44  45 0
 3-21G
 ****


