%nproc=1
%NoSave
%Mem=1900MB
#P OB98/GEN NMR

erre ene a

0 1
  C      238.653     -12.931    -281.035
  O      238.379     -12.306    -282.284
  P      238.644     -10.725    -282.397
  C      236.386     -10.180    -283.557
  O      237.803     -10.236    -283.673
  C      235.791      -9.343    -284.684
  O      236.120      -7.948    -284.498
  C      236.297      -9.702    -286.073
  O      235.621     -10.822    -286.621
  C      235.941      -8.438    -286.846
  O      234.538      -8.451    -287.181
  C      236.226      -7.344    -285.814
  N      238.930      -3.727    -288.214
  C      237.644      -4.118    -288.335
  N      237.001      -5.099    -287.671
  C      237.839      -5.723    -286.827
  C      239.182      -5.458    -286.621
  C      239.737      -4.400    -287.354
  N      241.037      -3.981    -287.209
  N      239.707      -6.315    -285.677
  C      238.701      -7.078    -285.308
  N      237.545      -6.753    -285.965
  O      240.162     -10.653    -282.905
  O      238.439      -9.957    -281.136
  H      234.048      -8.467    -286.331
  H      240.554      -9.794    -282.670
  H      237.050      -3.566    -289.061
  H      238.755      -7.865    -284.567
  H      235.493      -6.528    -285.852
  H      236.493      -8.341    -287.783
  H      237.385      -9.837    -286.076
  H      234.697      -9.441    -284.638
  H      236.125      -9.722    -282.594
  H      241.304      -3.102    -287.629
  H      241.573      -4.351    -286.425
  H      235.987     -11.198    -283.583
  P      236.532     -11.927    -287.344
  C      235.175     -11.308    -289.475
  O      235.725     -12.332    -288.670
  O      236.369     -13.207    -286.396
  O      237.952     -11.528    -287.528
  H      237.148     -13.794    -286.483
  H      234.946     -11.715    -290.464
  H      235.884     -10.475    -289.597
  H      234.249     -10.936    -289.023
  H      238.433     -13.976    -281.103
  H      238.046     -12.488    -280.274
  H      239.686     -12.799    -280.789

 3  4  5  6  7  8  9  10  11  12  22  25  29  30  31  32 0
 6-311+G(2d,p)
 ****
 33  36  37 0
 6-311+G(2d,p)
 ****
 1  2  13  14  15  16  17  18  19  20  21  23  24  26 0
 3-21G
 ****
 27  28  34  35  38  39  40  41  42  43  44  45  46  47  48 0
 3-21G
 ****


