%nproc=1
%NoSave
%Mem=1900MB
#P OB98/GEN NMR

erre ene a

0 1
  C     -309.185      73.846     115.648
  O     -310.511      74.200     115.985
  H     -308.530      74.089     116.489
  H     -308.865      74.423     114.778
  H     -309.107      72.776     115.436
  P     -311.687      73.584     115.086
  C     -313.448      72.739     116.795
  O     -313.049      73.780     115.915
  C     -314.808      73.060     117.416
  O     -314.615      74.051     118.470
  C     -315.836      73.628     116.423
  O     -317.134      73.128     116.765
  C     -315.806      75.115     116.724
  O     -317.005      75.771     116.329
  C     -315.577      75.095     118.232
  N     -316.614      78.742     121.518
  C     -317.144      77.475     121.389
  N     -318.150      77.139     122.224
  N     -316.725      76.605     120.508
  C     -315.700      77.061     119.747
  C     -315.093      78.292     119.772
  C     -315.577      79.254     120.740
  O     -315.164      80.399     120.889
  N     -314.132      78.386     118.796
  C     -314.177      77.221     118.170
  N     -315.113      76.386     118.711
  O     -311.411      72.010     115.181
  O     -311.726      74.059     113.672
  H     -317.752      75.358     116.807
  H     -310.880      71.721     114.416
  H     -316.985      79.380     122.201
  H     -313.572      76.945     117.319
  H     -316.490      74.855     118.792
  H     -314.963      75.586     116.203
  H     -318.505      77.745     122.948
  H     -315.615      73.399     115.376
  H     -318.520      76.198     122.168
  H     -315.195      72.153     117.898
  H     -312.706      72.639     117.593
  H     -313.496      71.797     116.239
  P     -318.279      73.173     115.644
  C     -318.851      70.635     115.712
  O     -319.304      71.966     115.909
  O     -317.506      72.713     114.320
  O     -318.906      74.516     115.472
  H     -317.869      73.181     113.545
  H     -319.646      69.952     115.928
  H     -318.025      70.439     116.364
  H     -318.541      70.511     114.696

 6  7  8  9  10  11  12  13  14  15  26  29  33  34 0
 6-311+G(2d,p)
 ****
 36  38  39  40  41 0
 6-311+G(2d,p)
 ****
 1  2  3  4  5  16  17  18  19  20  21  22  23  24  25 0
 3-21G
 ****
 27  28  30  31  32  35  37  42  43  44  45  46  47 0
 3-21G
 ****
 48  49 0
 3-21G
 ****


