%nproc=1
%NoSave
%Mem=1900MB
#P OB98/GEN NMR

erre ene a

0 1
  C     -674.636    -254.937    -112.910
  O     -675.827    -254.192    -113.064
  H     -673.806    -254.273    -112.649
  H     -674.773    -255.660    -112.101
  H     -674.405    -255.476    -113.834
  P     -675.820    -253.041    -114.184
  C     -677.096    -254.240    -116.112
  O     -675.841    -253.823    -115.586
  C     -677.145    -253.926    -117.602
  O     -676.933    -252.511    -117.824
  C     -676.070    -254.636    -118.418
  O     -676.423    -255.968    -118.739
  C     -676.028    -253.759    -119.655
  O     -677.154    -254.056    -120.501
  C     -676.170    -252.358    -119.048
  N     -673.471    -248.010    -119.265
  C     -674.746    -248.301    -119.612
  N     -675.394    -249.475    -119.499
  C     -674.597    -250.412    -118.963
  C     -673.280    -250.265    -118.561
  C     -672.707    -248.994    -118.733
  N     -671.401    -248.706    -118.414
  N     -672.784    -251.460    -118.077
  C     -673.790    -252.306    -118.175
  N     -674.896    -251.728    -118.735
  O     -674.333    -252.456    -114.121
  O     -676.870    -251.989    -114.046
  H     -677.958    -253.856    -119.989
  H     -674.280    -251.608    -114.598
  H     -675.315    -247.476    -120.029
  H     -673.761    -253.342    -117.864
  H     -676.722    -251.668    -119.702
  H     -675.127    -253.920    -120.258
  H     -675.094    -254.592    -117.918
  H     -678.148    -254.174    -117.974
  H     -677.896    -253.699    -115.595
  H     -671.040    -247.810    -118.713
  H     -670.784    -249.460    -118.158
  H     -677.220    -255.312    -115.947
  P     -675.224    -257.024    -118.943
  C     -674.662    -257.068    -116.406
  O     -674.205    -256.793    -117.725
  O     -674.441    -256.433    -120.204
  O     -675.673    -258.434    -119.163
  H     -674.046    -257.150    -120.737
  H     -673.877    -256.868    -115.707
  H     -674.949    -258.096    -116.335
  H     -675.504    -256.447    -116.183

 6  7  8  9  10  11  12  13  14  15  25  28  32  33  34  35 0
 6-311+G(2d,p)
 ****
 36  39  40 0
 6-311+G(2d,p)
 ****
 1  2  3  4  5  16  17  18  19  20  21  22  23  24 0
 3-21G
 ****
 26  27  29  30  31  37  38  41  42  43  44  45  46  47 0
 3-21G
 ****
 48 0
 3-21G
 ****


