%nproc=1
%NoSave
%Mem=1900MB
#P OB98/GEN NMR

erre ene a

0 1
  C       97.984     769.766     -49.695
  O       98.315     768.460     -49.248
  P       99.848     768.173     -48.880
  C       99.774     765.787     -49.906
  O       99.973     766.586     -48.744
  C       99.617     764.320     -49.528
  O      100.867     763.806     -49.031
  C       98.601     764.060     -48.428
  O       97.287     764.122     -48.944
  C       99.019     762.680     -47.948
  O       98.398     761.650     -48.741
  C      100.547     762.694     -48.165
  N      101.287     762.761     -46.914
  C      101.848     761.552     -46.474
  O      101.680     760.519     -47.127
  N      102.544     761.548     -45.286
  C      102.664     762.643     -44.609
  N      103.370     762.576     -43.441
  C      102.073     763.928     -45.024
  C      101.400     763.912     -46.178
  O       99.965     768.694     -47.375
  O      100.842     768.833     -49.786
  H       98.830     760.812     -48.468
  H      100.879     768.959     -47.164
  H      102.204     764.813     -44.421
  H      100.933     764.817     -46.561
  H      100.867     761.786     -48.699
  H       98.723     762.502     -46.909
  H       98.725     764.791     -47.616
  H       99.358     763.750     -50.436
  H      103.755     761.678     -43.177
  H      100.630     765.895     -50.576
  H      103.539     763.378     -42.854
  H       98.880     766.149     -50.431
  P       96.479     765.493     -48.770
  C       94.519     763.852     -48.633
  O       94.957     765.117     -49.081
  O       96.900     766.305     -50.091
  O       96.732     766.279     -47.526
  H       96.548     767.215     -50.051
  H       93.434     763.780     -48.764
  H       94.754     763.711     -47.574
  H       94.995     763.061     -49.223
  H       96.936     769.817     -49.904
  H       98.536     769.989     -50.584
  H       98.231     770.477     -48.934

 3  4  5  6  7  8  9  10  11  12  13  21  23  27  28  29  30  32 0
 6-311+G(2d,p)
 ****
 34  35 0
 6-311+G(2d,p)
 ****
 1  2  14  15  16  17  18  19  20  22  24  25  26 0
 3-21G
 ****
 31  33  36  37  38  39  40  41  42  43  44  45  46 0
 3-21G
 ****


