%nproc=1
%NoSave
%Mem=1900MB
#P OB98/GEN NMR

erre ene a

0 1
  C       66.300    -190.132      97.949
  O       64.947    -190.177      98.338
  H       66.736    -191.125      98.097
  H       66.853    -189.420      98.567
  H       66.391    -189.864      96.894
  P       64.064    -188.836      98.267
  C       62.819    -188.943      96.025
  O       62.756    -189.236      97.415
  C       61.594    -189.492      95.293
  O       61.529    -188.920      93.958
  C       61.599    -191.021      95.139
  O       60.322    -191.549      95.502
  C       61.833    -191.229      93.651
  O       61.346    -192.483      93.181
  C       61.145    -189.987      93.074
  N       61.535    -189.737      91.693
  C       60.744    -190.337      90.709
  O       59.775    -191.028      91.029
  N       61.097    -190.188      89.394
  C       62.175    -189.536      89.089
  N       62.486    -189.450      87.768
  C       63.055    -188.909      90.097
  C       62.677    -189.043      91.368
  O       64.796    -187.634      97.775
  O       63.477    -188.654      99.744
  H       60.372    -192.505      93.304
  H       63.233    -187.708      99.876
  H       63.946    -188.380      89.790
  H       63.261    -188.618      92.178
  H       60.052    -190.089      93.117
  H       62.911    -191.187      93.444
  H       62.369    -191.510      95.736
  H       60.693    -189.151      95.817
  H       61.859    -189.900      87.110
  H       63.738    -189.379      95.616
  H       63.309    -188.990      87.411
  H       62.851    -187.856      95.901
  P       60.323    -192.705      96.616
  C       59.244    -191.091      98.339
  O       59.185    -192.355      97.692
  O       61.693    -192.456      97.404
  O       60.260    -194.082      96.043
  H       62.324    -193.175      97.207
  H       58.426    -191.002      99.023
  H       59.183    -190.313      97.607
  H       60.167    -191.007      98.874

 6  7  8  9  10  11  12  13  14  15  16  26  30  31  32  33  35 0
 6-311+G(2d,p)
 ****
 37  38 0
 6-311+G(2d,p)
 ****
 1  2  3  4  5  17  18  19  20  21  22  23  24  25 0
 3-21G
 ****
 27  28  29  34  36  39  40  41  42  43  44  45  46 0
 3-21G
 ****


