%nproc=1
%NoSave
%Mem=1900MB
#P OB98/GEN NMR

erre ene a

0 1
  C     -191.428     819.452    -340.754
  O     -192.737     819.729    -340.291
  H     -191.305     819.895    -341.748
  H     -191.258     818.374    -340.836
  H     -190.688     819.892    -340.080
  P     -193.212     819.049    -338.918
  C     -192.249     820.788    -337.262
  O     -192.129     819.486    -337.824
  C     -192.635     820.695    -335.789
  O     -193.985     820.204    -335.661
  C     -191.769     819.715    -335.005
  O     -190.501     820.284    -334.730
  C     -192.646     819.458    -333.799
  O     -192.549     820.522    -332.840
  C     -194.052     819.420    -334.442
  N     -194.514     818.064    -334.718
  C     -194.889     817.308    -333.602
  O     -194.836     817.793    -332.471
  N     -195.306     816.016    -333.796
  C     -195.353     815.522    -334.995
  N     -195.770     814.237    -335.123
  C     -194.973     816.289    -336.199
  C     -194.564     817.541    -335.984
  O     -193.499     817.579    -338.956
  O     -194.506     819.901    -338.511
  H     -191.595     820.692    -332.727
  H     -195.310     819.508    -338.894
  H     -195.032     815.841    -337.177
  H     -194.267     818.168    -336.817
  H     -194.787     819.911    -333.789
  H     -192.372     818.531    -333.296
  H     -191.659     818.780    -335.559
  H     -192.598     821.696    -335.356
  H     -196.013     813.745    -334.268
  H     -193.034     821.309    -337.824
  H     -195.930     813.778    -336.005
  H     -191.313     821.349    -337.371
  P     -189.260     819.350    -334.335
  C     -188.296     819.256    -336.725
  O     -188.904     818.524    -335.666
  O     -189.443     818.533    -333.102
  O     -188.042     820.393    -334.232
  H     -188.105     820.930    -333.406
  H     -188.109     818.601    -337.550
  H     -187.372     819.674    -336.385
  H     -188.951     820.043    -337.036

 6  7  8  9  10  11  12  13  14  15  16  26  30  31  32  33  35 0
 6-311+G(2d,p)
 ****
 37  38 0
 6-311+G(2d,p)
 ****
 1  2  3  4  5  17  18  19  20  21  22  23  24  25 0
 3-21G
 ****
 27  28  29  34  36  39  40  41  42  43  44  45  46 0
 3-21G
 ****


