%nproc=1
%NoSave
%Mem=1900MB
#P OB98/GEN NMR

erre ene a

0 1
  C       18.271     404.444     215.306
  O       18.187     404.290     213.887
  P       18.297     405.640     213.024
  C       15.978     405.436     211.894
  O       16.807     406.185     212.768
  C       14.600     406.086     211.733
  O       13.769     405.336     210.796
  C       13.811     406.200     213.047
  O       13.053     407.413     212.974
  C       12.858     405.017     212.962
  O       11.761     405.164     213.853
  C       12.520     405.057     211.473
  N        8.439     402.096     211.677
  C        8.746     403.234     212.393
  N        7.807     403.678     213.256
  N        9.875     403.884     212.275
  C       10.705     403.345     211.341
  C       10.504     402.233     210.557
  C        9.262     401.505     210.724
  O        8.934     400.497     210.112
  N       11.567     402.021     209.710
  C       12.427     402.969     210.038
  N       11.931     403.827     210.976
  O       18.772     405.118     211.590
  O       19.252     406.642     213.595
  H       11.080     404.507     213.595
  H       19.731     405.255     211.478
  H        7.558     401.626     211.822
  H       13.405     403.093     209.604
  H       11.811     405.858     211.231
  H       13.385     404.090     213.219
  H        6.895     403.259     213.365
  H       14.426     406.182     213.948
  H        7.992     404.532     213.767
  H       14.744     407.087     211.304
  H       15.842     404.422     212.286
  H       16.479     405.324     210.924
  P       13.645     408.704     213.705
  C       12.964     408.055     216.122
  O       14.016     408.275     215.203
  O       12.354     409.636     213.900
  O       14.713     409.422     212.948
  H       12.598     410.570     213.752
  H       13.303     407.349     216.888
  H       12.079     407.638     215.630
  H       12.691     408.998     216.603
  H       18.186     403.486     215.774
  H       17.478     405.078     215.644
  H       19.212     404.884     215.562

 3  4  5  6  7  8  9  10  11  12  23  26  30  31 0
 6-311+G(2d,p)
 ****
 33  35  36  37  38 0
 6-311+G(2d,p)
 ****
 1  2  13  14  15  16  17  18  19  20  21  22  24  25 0
 3-21G
 ****
 27  28  29  32  34  39  40  41  42  43  44  45  46  47  48  49 0
 3-21G
 ****


