%nproc=1
%NoSave
%Mem=1900MB
#P OB98/GEN NMR

erre ene a

0 1
  C      149.398     285.517     230.648
  O      150.660     286.069     230.330
  P      150.778     287.279     229.278
  C      149.914     287.571     226.863
  O      150.346     286.650     227.860
  C      149.366     286.834     225.644
  O      148.133     286.164     225.968
  C      149.047     287.740     224.463
  O      150.236     288.111     223.783
  C      148.108     286.852     223.657
  O      148.841     285.920     222.842
  C      147.331     286.111     224.769
  N      145.998     286.665     224.978
  C      144.971     286.083     224.231
  O      145.217     285.182     223.423
  N      143.693     286.573     224.373
  C      143.468     287.567     225.179
  N      142.189     288.011     225.270
  C      144.537     288.223     225.961
  C      145.765     287.730     225.815
  O      152.075     288.009     229.289
  O      149.524     288.204     229.650
  H      149.439     285.443     223.454
  H      149.680     288.706     230.487
  H      144.305     289.057     226.612
  H      146.602     288.158     226.348
  H      147.221     285.048     224.518
  H      147.468     287.432     222.984
  H      148.507     288.628     224.810
  H      150.100     286.070     225.347
  H      141.498     287.548     224.693
  H      150.773     288.182     226.561
  H      141.914     288.801     225.836
  H      149.156     288.236     227.291
  P      150.161     289.113     222.537
  C      148.906     289.209     220.303
  O      149.326     288.390     221.378
  O      151.465     289.707     222.116
  O      149.158     290.260     223.042
  H      149.520     291.130     222.798
  H      148.661     288.570     219.452
  H      149.693     289.906     220.010
  H      148.012     289.765     220.598
  H      149.523     284.729     231.361
  H      148.945     285.127     229.760
  H      148.771     286.277     231.064

 3  4  5  6  7  8  9  10  11  12  13  23  27  28  29  30  32 0
 6-311+G(2d,p)
 ****
 34  35 0
 6-311+G(2d,p)
 ****
 1  2  14  15  16  17  18  19  20  21  22  24  25  26 0
 3-21G
 ****
 31  33  36  37  38  39  40  41  42  43  44  45  46 0
 3-21G
 ****


