%nproc=1
%NoSave
%Mem=1900MB
#P OB98/GEN NMR

erre ene a

0 1
  C     -111.697      65.598      21.048
  O     -112.011      64.811      22.184
  P     -111.233      65.123      23.555
  C     -109.762      63.034      23.048
  O     -109.808      64.393      23.455
  C     -108.311      62.554      22.947
  O     -107.610      63.402      22.002
  C     -107.525      62.594      24.264
  O     -106.589      61.511      24.226
  C     -106.782      63.914      24.178
  O     -105.642      63.960      25.028
  C     -106.468      63.964      22.686
  N     -104.556      66.843      18.988
  C     -104.514      65.469      19.154
  N     -103.930      64.765      18.161
  N     -105.001      64.845      20.194
  C     -105.568      65.682      21.097
  C     -105.640      67.055      21.065
  C     -105.130      67.729      19.891
  O     -105.224      68.932      19.664
  N     -106.210      67.556      22.206
  C     -106.557      66.482      22.887
  N     -106.232      65.324      22.236
  O     -112.033      64.248      24.627
  O     -111.152      66.570      23.938
  H     -105.934      63.727      25.935
  H     -112.727      64.778      25.066
  H     -104.181      67.265      18.157
  H     -107.049      66.483      23.849
  H     -105.583      63.369      22.423
  H     -107.450      64.736      24.468
  H     -103.562      65.176      17.316
  H     -108.160      62.522      25.154
  H     -103.915      63.754      18.240
  H     -108.315      61.537      22.534
  H     -110.230      62.944      22.062
  H     -110.327      62.420      23.757
  P     -106.283      60.736      25.595
  C     -104.120      62.124      25.924
  O     -105.339      61.678      26.483
  O     -105.297      59.563      25.128
  O     -107.487      60.177      26.283
  H     -105.432      58.776      25.689
  H     -103.805      63.031      26.449
  H     -104.222      62.351      24.859
  H     -103.355      61.354      26.059
  H     -112.290      65.277      20.217
  H     -110.660      65.485      20.811
  H     -111.905      66.626      21.258

 3  4  5  6  7  8  9  10  11  12  23  26  30  31 0
 6-311+G(2d,p)
 ****
 33  35  36  37  38 0
 6-311+G(2d,p)
 ****
 1  2  13  14  15  16  17  18  19  20  21  22  24  25 0
 3-21G
 ****
 27  28  29  32  34  39  40  41  42  43  44  45  46  47  48  49 0
 3-21G
 ****


