%nproc=1
%NoSave
%Mem=1900MB
#P OB98/GEN NMR

erre ene a

0 1
  C     -110.529     151.208     209.191
  O     -110.811     152.513     209.661
  H     -109.467     151.155     208.934
  H     -111.114     150.999     208.293
  H     -110.742     150.463     209.961
  P     -112.271     152.829     210.241
  C     -112.650     151.088     212.112
  O     -112.264     152.422     211.796
  C     -112.300     150.754     213.565
  O     -110.857     150.756     213.710
  C     -112.873     151.747     214.584
  O     -113.271     151.038     215.759
  C     -111.692     152.646     214.901
  O     -111.795     153.242     216.194
  C     -110.517     151.681     214.762
  N     -105.997     153.052     216.572
  C     -106.979     152.260     217.132
  N     -106.732     151.776     218.370
  N     -108.107     151.973     216.540
  C     -108.212     152.505     215.295
  C     -107.311     153.304     214.626
  C     -106.074     153.633     215.305
  O     -105.171     154.341     214.863
  N     -107.784     153.664     213.386
  C     -108.969     153.082     213.309
  N     -109.279     152.382     214.445
  O     -113.404     152.252     209.449
  O     -112.341     154.426     210.286
  H     -111.113     153.947     216.238
  H     -112.901     154.773     209.567
  H     -105.151     153.253     217.076
  H     -109.640     153.148     212.462
  H     -110.332     151.109     215.681
  H     -111.629     153.452     214.156
  H     -105.876     151.938     218.879
  H     -113.720     152.304     214.186
  H     -107.424     151.169     218.797
  H     -112.642     149.732     213.780
  H     -112.116     150.408     211.438
  H     -113.727     150.975     211.948
  P     -114.753     151.257     216.341
  C     -116.322     149.776     214.941
  O     -115.589     149.899     216.154
  O     -115.447     152.494     215.868
  O     -114.508     151.306     217.926
  H     -115.144     151.936     218.323
  H     -116.836     148.837     214.928
  H     -115.649     149.825     214.111
  H     -117.033     150.573     214.871

 6  7  8  9  10  11  12  13  14  15  26  29  33  34 0
 6-311+G(2d,p)
 ****
 36  38  39  40  41 0
 6-311+G(2d,p)
 ****
 1  2  3  4  5  16  17  18  19  20  21  22  23  24  25 0
 3-21G
 ****
 27  28  30  31  32  35  37  42  43  44  45  46  47 0
 3-21G
 ****
 48  49 0
 3-21G
 ****


