%nproc=1
%NoSave
%Mem=1900MB
#P OB98/GEN NMR

erre ene a

0 1
  C     -230.540     -26.689    -300.848
  O     -229.666     -25.826    -300.139
  P     -230.296     -24.516    -299.467
  C     -231.313     -25.689    -297.368
  O     -231.547     -24.989    -298.582
  C     -231.927     -24.916    -296.201
  O     -231.137     -23.740    -295.908
  C     -233.335     -24.407    -296.481
  O     -234.299     -25.435    -296.334
  C     -233.475     -23.296    -295.443
  O     -233.857     -23.830    -294.167
  C     -232.035     -22.736    -295.388
  N     -231.900     -21.472    -296.103
  C     -232.725     -20.435    -295.668
  O     -233.538     -20.567    -294.754
  N     -232.609     -19.254    -296.346
  C     -231.811     -19.024    -297.431
  O     -231.793     -17.962    -298.036
  C     -230.983     -20.164    -297.864
  C     -231.069     -21.315    -297.195
  O     -230.968     -23.740    -300.695
  O     -229.317     -23.657    -298.737
  H     -234.007     -23.066    -293.577
  H     -230.880     -22.775    -300.565
  H     -233.177     -18.482    -296.035
  H     -230.339     -20.019    -298.722
  H     -230.479     -22.171    -297.507
  H     -231.734     -22.574    -294.345
  H     -234.228     -22.562    -295.725
  H     -233.380     -23.964    -297.484
  H     -231.920     -25.563    -295.314
  H     -230.235     -25.798    -297.215
  H     -231.751     -26.691    -297.440
  P     -235.726     -25.196    -297.033
  C     -234.926     -26.659    -299.045
  O     -235.468     -25.438    -298.596
  O     -235.872     -23.613    -296.871
  O     -236.823     -25.994    -296.406
  H     -235.018     -23.159    -296.912
  H     -235.278     -27.500    -298.441
  H     -233.835     -26.609    -298.996
  H     -235.227     -26.820    -300.088
  H     -229.985     -27.516    -301.240
  H     -230.996     -26.152    -301.653
  H     -231.299     -27.051    -300.186

 3  4  5  6  7  8  9  10  11  12  13  23  28  29  30  31  32 0
 6-311+G(2d,p)
 ****
 33  34 0
 6-311+G(2d,p)
 ****
 1  2  14  15  16  17  18  19  20  21  22  24  25  26 0
 3-21G
 ****
 27  35  36  37  38  39  40  41  42  43  44  45 0
 3-21G
 ****


