%nproc=1
%NoSave
%Mem=1900MB
#P OB98/GEN NMR

erre ene a

0 1
  C      133.343    -125.889      74.600
  O      133.293    -125.561      75.978
  P      134.674    -125.278      76.739
  C      133.489    -124.098      78.725
  O      134.355    -125.142      78.307
  C      133.658    -123.814      80.219
  O      133.099    -124.912      80.988
  C      135.119    -123.655      80.651
  O      135.197    -122.696      81.715
  C      135.464    -125.009      81.235
  O      136.555    -124.921      82.151
  C      134.130    -125.393      81.874
  N      135.706    -129.328      84.624
  C      135.839    -127.977      84.871
  N      136.567    -127.632      85.955
  N      135.302    -127.047      84.126
  C      134.607    -127.540      83.072
  C      134.391    -128.858      82.732
  C      135.002    -129.874      83.559
  O      134.946    -131.086      83.379
  N      133.606    -128.964      81.615
  C      133.379    -127.718      81.250
  N      133.996    -126.819      82.082
  O      135.025    -123.781      76.296
  O      135.781    -126.213      76.390
  H      137.334    -124.635      81.637
  H      135.748    -123.790      75.641
  H      136.148    -130.006      85.222
  H      132.803    -127.414      80.386
  H      133.990    -124.898      82.842
  H      135.744    -125.703      80.436
  H      137.061    -128.297      86.530
  H      135.800    -123.360      79.846
  H      136.717    -126.647      86.132
  H      133.080    -122.919      80.473
  H      132.457    -124.393      78.533
  H      133.699    -123.193      78.145
  P      136.136    -121.421      81.445
  C      134.761    -119.986      83.125
  O      136.020    -120.508      82.755
  O      135.331    -120.599      80.335
  O      137.521    -121.763      81.009
  H      135.943    -120.050      79.811
  H      134.477    -120.400      84.097
  H      133.982    -120.226      82.396
  H      134.839    -118.900      83.211
  H      132.350    -126.049      74.235
  H      133.920    -126.780      74.466
  H      133.797    -125.086      74.058

 3  4  5  6  7  8  9  10  11  12  23  26  30  31 0
 6-311+G(2d,p)
 ****
 33  35  36  37  38 0
 6-311+G(2d,p)
 ****
 1  2  13  14  15  16  17  18  19  20  21  22  24  25 0
 3-21G
 ****
 27  28  29  32  34  39  40  41  42  43  44  45  46  47  48  49 0
 3-21G
 ****


