%nproc=1
%NoSave
%Mem=1900MB
#P OB98/GEN NMR

erre ene a

0 1
  C     -148.105    -302.413    -131.131
  O     -148.377    -302.641    -129.746
  P     -147.192    -303.297    -128.877
  C     -147.119    -301.629    -126.880
  O     -146.486    -302.111    -128.059
  C     -147.297    -300.114    -126.943
  O     -148.253    -299.746    -127.953
  C     -147.818    -299.493    -125.656
  O     -146.787    -299.328    -124.696
  C     -148.307    -298.140    -126.159
  O     -147.202    -297.223    -126.249
  C     -148.840    -298.481    -127.560
  N     -153.264    -296.064    -127.033
  C     -151.974    -295.589    -126.901
  N     -151.846    -294.275    -126.614
  N     -150.909    -296.332    -127.038
  C     -151.188    -297.619    -127.355
  C     -152.421    -298.209    -127.512
  C     -153.594    -297.383    -127.325
  O     -154.758    -297.760    -127.400
  N     -152.304    -299.534    -127.841
  C     -151.004    -299.741    -127.911
  N     -150.283    -298.611    -127.609
  O     -146.103    -303.676    -129.988
  O     -147.612    -304.482    -128.077
  H     -146.555    -297.614    -126.869
  H     -145.558    -304.424    -129.679
  H     -154.049    -295.449    -126.910
  H     -150.537    -300.680    -128.177
  H     -148.535    -297.736    -128.303
  H     -149.045    -297.685    -125.493
  H     -152.619    -293.631    -126.566
  H     -148.663    -300.068    -125.256
  H     -150.906    -293.900    -126.548
  H     -146.326    -299.670    -127.205
  H     -146.519    -301.889    -126.006
  H     -148.084    -302.132    -126.765
  P     -146.645    -300.463    -123.571
  C     -144.432    -301.602    -124.308
  O     -145.844    -301.661    -124.270
  O     -148.137    -301.023    -123.429
  O     -146.101    -299.980    -122.268
  H     -148.284    -301.365    -122.528
  H     -144.025    -301.268    -123.350
  H     -144.115    -300.919    -125.101
  H     -144.043    -302.600    -124.525
  H     -148.964    -301.977    -131.596
  H     -147.875    -303.343    -131.607
  H     -147.272    -301.748    -131.226

 3  4  5  6  7  8  9  10  11  12  23  26  30  31  33  0
 6-311+G(2d,p)
 ****
 35  36  37  38 0
 6-311+G(2d,p)
 ****
 1  2  13  14  15  16  17  18  19  20  21  22  24  25  27  28  29 0
 3-21G
 ****
 32  34  39  40  41  42  43  44  45  46  47  48  49 0
 3-21G
 ****


