%nproc=1
%NoSave
%Mem=1900MB
#P OB98/GEN NMR

erre ene a

0 1
  C       96.080     149.442     -87.291
  O       95.208     149.992     -86.298
  P       94.531     151.412     -86.615
  C       95.397     153.802     -87.187
  O       95.674     152.535     -86.598
  C       95.862     154.927     -86.259
  O       95.196     154.861     -84.984
  C       97.345     154.866     -85.940
  O       98.112     155.363     -87.020
  C       97.436     155.716     -84.676
  O       97.671     157.100     -84.985
  C       96.045     155.526     -84.028
  N       96.103     154.793     -82.777
  C       95.135     155.131     -81.826
  O       94.309     156.017     -82.064
  N       95.138     154.472     -80.623
  C       96.046     153.578     -80.380
  N       95.998     152.963     -79.165
  C       97.102     153.210     -81.346
  C       97.071     153.853     -82.510
  O       93.691     151.719     -85.290
  O       93.662     151.410     -87.833
  H       97.576     157.582     -84.136
  H       92.883     152.223     -85.511
  H       97.841     152.465     -81.094
  H       97.811     153.649     -83.281
  H       95.579     156.500     -83.828
  H       98.258     155.393     -84.034
  H       97.639     153.830     -85.709
  H       95.621     155.890     -86.732
  H       95.265     153.240     -78.529
  H       94.329     153.901     -87.386
  H       96.660     152.257     -78.872
  H       95.903     153.857     -88.159
  P       98.861     154.301     -87.955
  C      101.310     153.565     -88.215
  O      100.376     154.285     -87.429
  O       99.005     155.108     -89.332
  O       98.211     152.976     -88.148
  H       99.371     154.531     -90.027
  H      102.320     153.804     -87.873
  H      101.223     153.849     -89.269
  H      101.144     152.492     -88.099
  H       96.458     148.500     -86.951
  H       96.895     150.114     -87.461
  H       95.538     149.301     -88.203

 3  4  5  6  7  8  9  10  11  12  13  21  23  27  28  29  30  32 0
 6-311+G(2d,p)
 ****
 34  35 0
 6-311+G(2d,p)
 ****
 1  2  14  15  16  17  18  19  20  22  24  25  26 0
 3-21G
 ****
 31  33  36  37  38  39  40  41  42  43  44  45  46 0
 3-21G
 ****


