%nproc=1
%NoSave
%Mem=1900MB
#P OB98/GEN NMR

erre ene a

0 1
  C     -220.334    -183.621      20.377
  O     -220.430    -184.564      21.427
  H     -221.248    -183.022      20.356
  H     -220.234    -184.143      19.423
  H     -219.480    -182.953      20.532
  P     -219.078    -185.318      21.850
  C     -219.121    -185.587      24.431
  O     -219.425    -186.164      23.169
  C     -219.421    -186.579      25.552
  O     -220.842    -186.736      25.721
  C     -218.853    -187.978      25.321
  O     -217.487    -188.063      25.708
  C     -219.733    -188.795      26.251
  O     -219.294    -188.621      27.616
  C     -221.106    -188.130      26.056
  N     -224.970    -191.257      25.045
  C     -224.378    -190.945      26.252
  N     -224.879    -191.561      27.345
  N     -223.379    -190.111      26.380
  C     -222.962    -189.587      25.199
  C     -223.467    -189.826      23.938
  C     -224.581    -190.737      23.818
  O     -225.149    -191.039      22.770
  N     -222.790    -189.115      22.984
  C     -221.862    -188.468      23.662
  N     -221.925    -188.725      25.011
  O     -218.161    -184.122      22.394
  O     -218.399    -186.069      20.753
  H     -219.921    -189.105      28.183
  H     -217.506    -183.891      21.707
  H     -225.732    -191.916      25.001
  H     -221.132    -187.799      23.228
  H     -221.707    -188.138      26.976
  H     -219.695    -189.865      26.040
  H     -225.633    -192.231      27.315
  H     -219.003    -188.310      24.284
  H     -224.460    -191.346      28.242
  H     -219.027    -186.156      26.487
  H     -219.732    -184.690      24.568
  H     -218.062    -185.309      24.449
  P     -216.419    -188.558      24.618
  C     -214.544    -187.722      26.200
  O     -215.029    -188.783      25.391
  O     -216.156    -187.235      23.754
  O     -216.868    -189.689      23.756
  H     -216.525    -187.345      22.854
  H     -213.617    -188.011      26.650
  H     -215.258    -187.502      26.966
  H     -214.391    -186.853      25.595

 6  7  8  9  10  11  12  13  14  15  26  29  33  34 0
 6-311+G(2d,p)
 ****
 36  38  39  40  41 0
 6-311+G(2d,p)
 ****
 1  2  3  4  5  16  17  18  19  20  21  22  23  24  25 0
 3-21G
 ****
 27  28  30  31  32  35  37  42  43  44  45  46  47 0
 3-21G
 ****
 48  49 0
 3-21G
 ****


