%nproc=1
%NoSave
%Mem=1900MB
#P OB98/GEN NMR

erre ene a

0 1
  C     -233.511       1.517     -18.266
  O     -232.973       2.615     -17.554
  H     -234.591       1.501     -18.129
  H     -233.090       0.586     -17.874
  H     -233.294       1.606     -19.337
  P     -231.456       3.025     -17.883
  C     -231.260       5.469     -17.018
  O     -231.020       4.091     -16.762
  C     -230.942       6.298     -15.777
  O     -231.852       5.981     -14.708
  C     -229.535       6.091     -15.226
  O     -228.573       6.885     -15.915
  C     -229.716       6.576     -13.797
  O     -229.731       8.022     -13.774
  C     -231.116       6.035     -13.454
  N     -230.713       3.448      -9.107
  C     -230.591       4.803      -9.343
  N     -230.318       5.581      -8.271
  N     -230.724       5.352     -10.526
  C     -230.973       4.451     -11.509
  C     -231.106       3.079     -11.397
  C     -230.975       2.495     -10.082
  O     -231.081       1.298      -9.817
  N     -231.355       2.499     -12.612
  C     -231.350       3.510     -13.459
  N     -231.117       4.716     -12.838
  O     -231.609       3.910     -19.210
  O     -230.520       1.880     -18.097
  H     -230.627       8.303     -14.034
  H     -231.353       3.368     -19.980
  H     -230.590       3.074      -8.178
  H     -231.514       3.425     -14.524
  H     -231.666       6.705     -12.776
  H     -228.912       6.256     -13.134
  H     -230.183       5.220      -7.335
  H     -229.252       5.026     -15.219
  H     -230.228       6.579      -8.421
  H     -231.102       7.355     -16.034
  H     -232.312       5.601     -17.285
  H     -230.633       5.786     -17.856
  P     -227.166       6.211     -16.294
  C     -226.339       7.591     -18.329
  O     -226.250       7.371     -16.931
  O     -227.541       5.298     -17.555
  O     -226.531       5.408     -15.209
  H     -227.472       4.351     -17.316
  H     -225.679       8.386     -18.608
  H     -227.344       7.855     -18.585
  H     -226.061       6.698     -18.849

 6  7  8  9  10  11  12  13  14  15  26  29  33  34 0
 6-311+G(2d,p)
 ****
 36  38  39  40  41 0
 6-311+G(2d,p)
 ****
 1  2  3  4  5  16  17  18  19  20  21  22  23  24  25 0
 3-21G
 ****
 27  28  30  31  32  35  37  42  43  44  45  46  47 0
 3-21G
 ****
 48  49 0
 3-21G
 ****


