%nproc=1
%NoSave
%Mem=1900MB
#P OB98/GEN NMR

erre ene a

0 1
  C      -35.609    -160.358      21.051
  O      -35.246    -160.696      22.379
  P      -36.238    -161.661      23.195
  C      -37.450    -159.563      24.133
  O      -36.802    -160.796      24.425
  C      -37.733    -158.769      25.410
  O      -38.229    -157.457      25.048
  C      -38.758    -159.424      26.340
  O      -38.349    -159.178      27.685
  C      -40.031    -158.647      26.062
  O      -40.934    -158.703      27.166
  C      -39.470    -157.250      25.753
  N      -40.400    -156.442      24.971
  C      -41.454    -155.841      25.667
  O      -41.607    -156.067      26.868
  N      -42.332    -155.042      24.978
  C      -42.232    -154.942      23.689
  N      -43.124    -154.137      23.052
  C      -41.210    -155.660      22.902
  C      -40.325    -156.366      23.602
  O      -35.238    -162.692      23.897
  O      -37.266    -162.349      22.356
  H      -41.691    -158.106      26.970
  H      -35.653    -163.570      23.992
  H      -41.194    -155.570      21.825
  H      -39.526    -156.906      23.110
  H      -39.238    -156.713      26.682
  H      -40.537    -159.061      25.180
  H      -38.857    -160.501      26.173
  H      -36.783    -158.622      25.939
  H      -43.824    -153.667      23.612
  H      -38.405    -159.770      23.642
  H      -43.124    -153.998      22.051
  H      -36.831    -158.981      23.445
  P      -37.962    -160.446      28.589
  C      -40.154    -160.361      29.923
  O      -38.748    -160.225      29.969
  O      -36.457    -160.084      29.015
  O      -38.039    -161.803      27.975
  H      -36.077    -160.822      29.527
  H      -40.544    -160.322      30.944
  H      -40.433    -161.316      29.473
  H      -40.589    -159.535      29.351
  H      -34.864    -159.715      20.630
  H      -36.553    -159.854      21.056
  H      -35.684    -161.249      20.464

 3  4  5  6  7  8  9  10  11  12  13  21  23  27  28  29  30  32 0
 6-311+G(2d,p)
 ****
 34  35 0
 6-311+G(2d,p)
 ****
 1  2  14  15  16  17  18  19  20  22  24  25  26 0
 3-21G
 ****
 31  33  36  37  38  39  40  41  42  43  44  45  46 0
 3-21G
 ****


