%nproc=1
%NoSave
%Mem=1900MB
#P OB98/GEN NMR

erre ene a

0 1
  C      243.491     102.633    -174.241
  O      244.181     101.400    -174.203
  H      244.103     103.410    -173.780
  H      243.310     102.902    -175.286
  H      242.529     102.558    -173.726
  P      244.287     100.663    -172.782
  C      242.891      98.524    -173.248
  O      244.185      99.087    -173.080
  C      242.992      97.119    -173.839
  O      243.322      97.234    -175.252
  C      244.060      96.231    -173.179
  O      243.549      94.897    -173.093
  C      245.202      96.258    -174.179
  O      246.037      95.110    -174.090
  C      244.442      96.365    -175.497
  N      248.067      95.099    -178.832
  C      247.204      94.353    -178.111
  N      246.229      94.775    -177.282
  C      246.145      96.116    -177.289
  C      246.949      97.010    -177.977
  C      247.966      96.448    -178.769
  N      248.893      97.200    -179.454
  N      246.586      98.310    -177.682
  C      245.600      98.200    -176.811
  N      245.300      96.895    -176.543
  O      242.874     101.010    -172.108
  O      245.432     101.081    -171.924
  H      246.572      95.170    -173.274
  H      242.937     101.859    -171.636
  H      247.320      93.275    -178.202
  H      245.096      99.025    -176.329
  H      244.059      95.397    -175.844
  H      245.818      97.148    -174.006
  H      244.366      96.574    -172.185
  H      242.005      96.646    -173.779
  H      242.313      99.155    -173.932
  H      249.650      96.712    -179.907
  H      248.898      98.201    -179.329
  H      242.382      98.494    -172.280
  P      244.341      93.861    -172.161
  C      242.367      93.242    -170.579
  O      243.293      92.805    -171.569
  O      244.738      94.744    -170.886
  O      245.545      93.261    -172.811
  H      245.590      94.446    -170.521
  H      241.741      92.424    -170.290
  H      241.762      94.029    -170.979
  H      242.902      93.602    -169.725

 6  7  8  9  10  11  12  13  14  15  25  28  32  33  34  35 0
 6-311+G(2d,p)
 ****
 36  39  40 0
 6-311+G(2d,p)
 ****
 1  2  3  4  5  16  17  18  19  20  21  22  23  24 0
 3-21G
 ****
 26  27  29  30  31  37  38  41  42  43  44  45  46  47 0
 3-21G
 ****
 48 0
 3-21G
 ****


