%nproc=1
%NoSave
%Mem=1900MB
#P OB98/GEN NMR

erre ene a

0 1
  C       -4.434    -336.955     475.521
  O       -3.368    -336.571     474.645
  P       -2.902    -337.616     473.520
  C       -4.497    -337.171     471.511
  O       -4.173    -337.997     472.619
  C       -4.625    -338.011     470.233
  O       -5.800    -338.849     470.262
  C       -4.751    -337.180     468.964
  O       -3.482    -336.739     468.502
  C       -5.337    -338.202     468.004
  O       -4.291    -339.061     467.504
  C       -6.287    -338.991     468.907
  N      -10.210    -337.801     465.835
  C       -8.945    -338.195     465.572
  N       -7.954    -338.475     466.442
  C       -8.380    -338.327     467.706
  C       -9.637    -337.932     468.131
  C      -10.584    -337.660     467.133
  N      -11.874    -337.259     467.407
  N       -9.697    -337.884     469.508
  C       -8.499    -338.260     469.906
  N       -7.665    -338.533     468.857
  O       -2.632    -338.953     474.358
  O       -1.690    -337.187     472.761
  H       -4.728    -339.756     466.972
  H       -1.890    -339.446     473.960
  H       -8.697    -338.300     464.515
  H       -8.192    -338.355     470.942
  H       -6.296    -340.066     468.670
  H       -5.807    -337.737     467.133
  H       -5.458    -336.348     469.110
  H       -3.738    -338.659     470.165
  H       -3.727    -336.405     471.378
  H      -12.503    -337.110     466.636
  H      -12.159    -337.178     468.375
  H       -5.430    -336.640     471.722
  P       -2.925    -335.356     469.103
  C       -0.865    -336.349     470.347
  O       -2.145    -335.748     470.449
  O       -4.251    -334.626     469.621
  O       -2.166    -334.522     468.124
  H       -4.144    -333.658     469.562
  H       -0.365    -336.267     471.316
  H       -0.256    -335.842     469.595
  H       -0.970    -337.406     470.089
  H       -4.631    -336.162     476.212
  H       -4.153    -337.836     476.060
  H       -5.314    -337.154     474.946

 3  4  5  6  7  8  9  10  11  12  22  25  29  30  31  32 0
 6-311+G(2d,p)
 ****
 33  36  37 0
 6-311+G(2d,p)
 ****
 1  2  13  14  15  16  17  18  19  20  21  23  24  26 0
 3-21G
 ****
 27  28  34  35  38  39  40  41  42  43  44  45  46  47  48 0
 3-21G
 ****


