%nproc=1
%NoSave
%Mem=1900MB
#P OB98/GEN NMR

erre ene a

0 1
  C      -34.787    -424.867    -313.907
  O      -34.770    -423.513    -314.311
  H      -33.797    -425.136    -313.536
  H      -35.029    -425.506    -314.760
  H      -35.518    -425.021    -313.107
  P      -36.178    -422.836    -314.673
  C      -36.670    -422.021    -312.253
  O      -36.406    -421.660    -313.602
  C      -36.883    -420.762    -311.411
  O      -37.286    -421.166    -310.070
  C      -35.631    -419.886    -311.270
  O      -36.040    -418.513    -311.251
  C      -35.102    -420.265    -309.898
  O      -34.280    -419.268    -309.302
  C      -36.411    -420.500    -309.136
  N      -36.222    -421.300    -307.927
  C      -35.750    -420.647    -306.794
  O      -35.559    -419.434    -306.711
  N      -35.488    -421.453    -305.715
  C      -35.630    -422.807    -305.668
  O      -35.361    -423.474    -304.675
  C      -36.125    -423.442    -306.897
  C      -36.392    -422.670    -307.956
  O      -37.237    -423.950    -314.232
  O      -36.344    -422.418    -316.096
  H      -37.422    -424.557    -314.973
  H      -34.754    -418.416    -309.376
  H      -35.144    -420.993    -304.887
  H      -36.238    -424.517    -306.900
  H      -36.738    -423.109    -308.886
  H      -36.877    -419.545    -308.875
  H      -34.517    -421.189    -309.966
  H      -34.884    -420.042    -312.054
  H      -37.717    -420.191    -311.836
  H      -35.817    -422.576    -311.852
  H      -37.559    -422.659    -312.217
  P      -35.890    -417.684    -312.617
  C      -38.419    -417.977    -313.246
  O      -37.353    -417.097    -312.926
  O      -35.706    -418.866    -313.679
  O      -34.783    -416.686    -312.580
  H      -36.224    -419.661    -313.457
  H      -39.310    -417.410    -313.419
  H      -38.579    -418.654    -312.433
  H      -38.172    -418.531    -314.128

 6  7  8  9  10  11  12  13  14  15  16  27  31  32  33  34  35 0
 6-311+G(2d,p)
 ****
 36  37 0
 6-311+G(2d,p)
 ****
 1  2  3  4  5  17  18  19  20  21  22  23  24  25 0
 3-21G
 ****
 26  28  29  30  38  39  40  41  42  43  44  45 0
 3-21G
 ****


