%nproc=1
%NoSave
%Mem=1900MB
#P OB98/GEN NMR

erre ene a

0 1
  C      -22.857     181.975    -131.497
  O      -23.338     183.012    -132.359
  P      -22.235     183.861    -133.160
  C      -20.787     182.032    -134.288
  O      -21.793     183.022    -134.457
  C      -20.404     181.389    -135.626
  O      -21.364     180.360    -135.999
  C      -20.343     182.384    -136.790
  O      -19.310     181.946    -137.684
  C      -21.685     182.198    -137.470
  O      -21.667     182.685    -138.810
  C      -21.862     180.688    -137.313
  N      -25.479     179.368    -140.666
  C      -24.188     179.723    -140.823
  N      -23.292     180.083    -139.877
  C      -23.846     180.008    -138.657
  C      -25.154     179.674    -138.338
  C      -25.995     179.341    -139.413
  N      -27.320     179.006    -139.256
  N      -25.358     179.760    -136.974
  C      -24.198     180.145    -136.482
  N      -23.248     180.279    -137.453
  O      -20.953     183.785    -132.204
  O      -22.637     185.275    -133.422
  H      -22.576     182.609    -139.175
  H      -20.804     184.651    -131.779
  H      -23.821     179.723    -141.849
  H      -23.996     180.346    -135.440
  H      -21.282     180.120    -138.052
  H      -22.462     182.741    -136.920
  H      -20.165     183.424    -136.497
  H      -19.428     180.902    -135.506
  H      -21.137     181.254    -133.601
  H      -27.863     178.810    -140.081
  H      -27.727     179.028    -138.332
  H      -19.918     182.490    -133.801
  P      -17.920     182.742    -137.614
  C      -17.125     182.130    -135.219
  O      -16.982     181.918    -136.612
  O      -18.284     184.067    -136.792
  O      -17.328     183.055    -138.949
  H      -17.665     184.786    -137.023
  H      -17.046     181.167    -134.707
  H      -18.090     182.583    -134.969
  H      -16.322     182.783    -134.873
  H      -23.686     181.489    -131.026
  H      -22.221     182.400    -130.749
  H      -22.305     181.261    -132.072

 3  4  5  6  7  8  9  10  11  12  22  25  29  30  31  32 0
 6-311+G(2d,p)
 ****
 33  36  37 0
 6-311+G(2d,p)
 ****
 1  2  13  14  15  16  17  18  19  20  21  23  24  26 0
 3-21G
 ****
 27  28  34  35  38  39  40  41  42  43  44  45  46  47  48 0
 3-21G
 ****


