%nproc=1
%NoSave
%Mem=1900MB
#P OB98/GEN NMR

erre ene a

0 1
  C     -524.247     246.433     231.397
  O     -524.288     246.837     232.754
  H     -524.558     247.274     230.771
  H     -524.939     245.601     231.237
  H     -523.234     246.137     231.115
  P     -523.698     245.801     233.830
  C     -521.118     245.760     233.340
  O     -522.192     246.278     234.106
  C     -519.864     245.600     234.203
  O     -518.918     244.756     233.498
  C     -519.164     246.923     234.522
  O     -518.623     246.842     235.842
  C     -518.029     246.973     233.513
  O     -516.967     247.819     233.943
  C     -517.672     245.481     233.390
  N     -516.976     245.175     232.145
  C     -515.575     245.214     232.187
  O     -514.993     245.506     233.229
  N     -514.873     244.960     231.036
  C     -515.509     244.752     229.922
  N     -514.755     244.529     228.813
  C     -516.981     244.746     229.828
  C     -517.646     244.953     230.965
  O     -523.526     244.476     232.950
  O     -524.543     245.626     235.047
  H     -517.338     248.700     234.163
  H     -523.129     244.641     232.077
  H     -517.469     244.581     228.874
  H     -518.726     244.957     230.986
  H     -517.036     245.171     234.229
  H     -518.394     247.357     232.555
  H     -519.836     247.784     234.450
  H     -520.141     245.070     235.120
  H     -513.745     244.567     228.922
  H     -520.896     246.423     232.496
  H     -515.141     244.415     227.888
  H     -521.427     244.791     232.936
  P     -519.285     247.697     237.022
  C     -521.514     246.648     237.808
  O     -520.105     246.720     237.992
  O     -520.006     248.932     236.606
  O     -518.013     248.084     237.930
  H     -518.124     249.016     238.218
  H     -521.932     245.964     238.517
  H     -521.727     246.308     236.816
  H     -521.943     247.618     237.953

 6  7  8  9  10  11  12  13  14  15  16  26  30  31  32  33  35 0
 6-311+G(2d,p)
 ****
 37  38 0
 6-311+G(2d,p)
 ****
 1  2  3  4  5  17  18  19  20  21  22  23  24  25 0
 3-21G
 ****
 27  28  29  34  36  39  40  41  42  43  44  45  46 0
 3-21G
 ****


