%nproc=1
%NoSave
%Mem=1900MB
#P OB98/GEN NMR

erre ene a

0 1
  C      214.698    -148.122      32.557
  O      215.776    -148.889      32.070
  H      214.905    -147.066      32.363
  H      214.602    -148.268      33.636
  H      213.760    -148.391      32.066
  P      215.551    -150.450      31.804
  C      216.188    -150.998      29.363
  O      215.144    -150.643      30.262
  C      217.106    -149.812      29.067
  O      217.698    -149.338      30.295
  C      218.262    -150.184      28.134
  O      217.957    -150.086      26.753
  C      219.328    -149.167      28.533
  O      219.195    -147.948      27.781
  C      219.041    -148.915      30.017
  N      223.544    -148.814      32.437
  C      223.058    -147.950      31.473
  N      223.896    -146.964      31.086
  N      221.872    -148.065      30.936
  C      221.190    -149.155      31.351
  C      221.575    -150.092      32.285
  C      222.860    -149.916      32.928
  O      223.328    -150.643      33.798
  N      220.637    -151.086      32.420
  C      219.731    -150.796      31.508
  N      219.982    -149.592      30.891
  O      214.174    -150.763      32.566
  O      216.642    -151.352      32.298
  H      218.246    -147.723      27.738
  H      214.183    -151.679      32.894
  H      224.452    -148.658      32.834
  H      218.854    -151.393      31.285
  H      219.095    -147.847      30.259
  H      220.330    -149.553      28.331
  H      224.849    -146.882      31.401
  H      218.641    -151.183      28.366
  H      223.655    -146.428      30.251
  H      216.510    -148.986      28.658
  H      215.705    -151.336      28.446
  H      216.763    -151.838      29.762
  P      217.402    -151.347      25.945
  C      215.056    -150.562      25.066
  O      215.808    -151.315      25.992
  O      217.776    -152.578      26.896
  O      217.950    -151.519      24.566
  H      218.592    -153.015      26.590
  H      214.013    -150.679      25.274
  H      215.263    -150.907      24.074
  H      215.322    -149.529      25.147

 6  7  8  9  10  11  12  13  14  15  26  29  33  34 0
 6-311+G(2d,p)
 ****
 36  38  39  40  41 0
 6-311+G(2d,p)
 ****
 1  2  3  4  5  16  17  18  19  20  21  22  23  24  25 0
 3-21G
 ****
 27  28  30  31  32  35  37  42  43  44  45  46  47 0
 3-21G
 ****
 48  49 0
 3-21G
 ****


