%nproc=1
%NoSave
%Mem=1900MB
#P OB98/GEN NMR

erre ene a

0 1
  C     -926.805      61.174      13.208
  O     -927.010      61.427      14.584
  H     -925.863      60.628      13.091
  H     -926.737      62.116      12.654
  H     -927.621      60.564      12.813
  P     -928.327      62.261      14.970
  C     -926.740      63.434      16.625
  O     -928.016      62.843      16.435
  C     -926.231      63.171      18.041
  O     -927.022      63.948      18.974
  C     -926.333      61.698      18.462
  O     -925.194      61.354      19.250
  C     -927.577      61.663      19.332
  O     -927.561      60.589      20.267
  C     -927.554      63.057      19.967
  N     -930.750      63.428      23.927
  C     -929.445      63.090      23.848
  N     -928.666      63.030      22.752
  C     -929.351      63.419      21.654
  C     -930.681      63.788      21.579
  C     -931.395      63.776      22.790
  N     -932.732      64.094      22.876
  N     -931.028      64.071      20.276
  C     -929.924      63.889      19.574
  N     -928.886      63.480      20.366
  O     -929.621      61.526      14.833
  O     -928.177      63.558      14.048
  H     -927.457      59.751      19.768
  H     -927.262      63.899      14.058
  H     -928.971      62.818      24.794
  H     -929.826      64.031      18.504
  H     -926.916      63.097      20.857
  H     -928.463      61.545      18.696
  H     -926.412      61.029      17.607
  H     -925.195      63.528      18.118
  H     -926.796      64.515      16.453
  H     -933.171      64.076      23.784
  H     -933.234      64.375      22.035
  H     -926.050      63.002      15.889
  P     -924.079      60.417      18.591
  C     -923.596      59.319      20.892
  O     -923.043      59.962      19.740
  O     -923.451      60.907      17.333
  O     -924.888      59.044      18.323
  H     -924.575      58.659      17.486
  H     -922.809      59.069      21.573
  H     -924.105      58.427      20.593
  H     -924.287      59.980      21.372

 6  7  8  9  10  11  12  13  14  15  25  28  32  33  34  35 0
 6-311+G(2d,p)
 ****
 36  39  40 0
 6-311+G(2d,p)
 ****
 1  2  3  4  5  16  17  18  19  20  21  22  23  24 0
 3-21G
 ****
 26  27  29  30  31  37  38  41  42  43  44  45  46  47 0
 3-21G
 ****
 48 0
 3-21G
 ****


