%nproc=1
%NoSave
%Mem=1900MB
#P OB98/GEN NMR

erre ene a

0 1
  C       74.659     493.259     478.630
  O       75.455     493.511     479.771
  H       74.643     492.185     478.418
  H       73.633     493.586     478.837
  H       75.040     493.804     477.765
  P       77.048     493.384     479.599
  C       77.242     491.061     480.746
  O       77.379     491.807     479.547
  C       77.689     489.612     480.524
  O       76.727     488.959     479.661
  C       79.081     489.476     479.881
  O       79.758     488.364     480.488
  C       78.762     489.133     478.435
  O       79.822     488.415     477.798
  C       77.487     488.326     478.598
  N       75.492     485.213     475.109
  C       75.941     484.988     476.360
  N       76.409     485.888     477.246
  C       76.311     487.146     476.755
  C       75.865     487.529     475.497
  C       75.456     486.492     474.641
  N       75.053     486.701     473.348
  N       75.981     488.902     475.350
  C       76.494     489.332     476.479
  N       76.721     488.297     477.361
  O       77.585     493.828     481.042
  O       77.643     494.202     478.503
  H       80.051     487.644     478.365
  H       77.699     494.794     481.064
  H       75.948     483.953     476.689
  H       76.766     490.345     476.705
  H       77.667     487.277     478.888
  H       78.573     490.053     477.870
  H       79.701     490.380     479.965
  H       77.657     489.093     481.493
  H       76.180     491.065     481.051
  H       74.881     485.884     472.766
  H       75.129     487.626     472.952
  H       77.834     491.531     481.539
  P       80.379     488.589     481.951
  C       82.927     489.003     481.596
  O       81.650     489.569     481.824
  O       81.042     487.168     482.280
  O       79.371     488.985     482.983
  H       80.991     486.988     483.242
  H       83.657     489.783     481.537
  H       82.915     488.455     480.677
  H       83.174     488.343     482.402

 6  7  8  9  10  11  12  13  14  15  25  28  32  33  34  35 0
 6-311+G(2d,p)
 ****
 36  39  40 0
 6-311+G(2d,p)
 ****
 1  2  3  4  5  16  17  18  19  20  21  22  23  24 0
 3-21G
 ****
 26  27  29  30  31  37  38  41  42  43  44  45  46  47 0
 3-21G
 ****
 48 0
 3-21G
 ****


