%nproc=1
%NoSave
%Mem=1900MB
#P OB98/GEN NMR

erre ene a

0 1
  C     -692.598    -174.422       9.661
  O     -693.015    -173.303      10.457
  P     -694.369    -172.546      10.089
  C     -695.034    -172.055      12.554
  O     -695.404    -172.666      11.322
  C     -695.331    -172.981      13.724
  O     -694.659    -174.256      13.576
  C     -694.831    -172.445      15.055
  O     -695.502    -171.312      15.582
  C     -694.787    -173.689      15.927
  O     -696.078    -173.988      16.475
  C     -694.365    -174.772      14.893
  N     -692.968    -175.159      15.018
  C     -692.690    -176.182      15.926
  O     -693.559    -176.698      16.623
  N     -691.381    -176.543      16.022
  C     -690.328    -175.980      15.354
  O     -689.168    -176.335      15.505
  C     -690.681    -174.891      14.431
  C     -691.965    -174.531      14.300
  O     -694.949    -172.844       8.753
  O     -693.940    -170.995      10.179
  H     -696.682    -174.160      15.732
  H     -694.361    -170.527       9.434
  H     -691.158    -177.293      16.668
  H     -689.867    -174.414      13.881
  H     -692.241    -173.725      13.627
  H     -694.978    -175.674      15.028
  H     -694.104    -173.573      16.775
  H     -693.787    -172.121      14.925
  H     -696.409    -173.179      13.754
  H     -695.580    -171.108      12.667
  H     -693.971    -171.795      12.510
  P     -694.797    -169.888      15.787
  C     -696.791    -168.280      15.400
  O     -695.585    -168.795      14.906
  O     -693.295    -169.848      15.749
  O     -695.267    -169.502      17.263
  H     -694.561    -168.983      17.698
  H     -697.195    -167.570      14.668
  H     -696.618    -167.740      16.342
  H     -697.526    -169.070      15.554
  H     -691.676    -174.808      10.044
  H     -692.459    -174.107       8.648
  H     -693.347    -175.185       9.698

 3  4  5  6  7  8  9  10  11  12  13  23  28  29  30  31  32 0
 6-311+G(2d,p)
 ****
 33  34 0
 6-311+G(2d,p)
 ****
 1  2  14  15  16  17  18  19  20  21  22  24  25  26  27 0
 3-21G
 ****
 35  36  37  38  39  40  41  42  43  44  45 0
 3-21G
 ****


