%nproc=1
%NoSave
%Mem=1900MB
#P OB98/GEN NMR

erre ene a

0 1
  C      158.316    -153.057    -196.481
  O      157.797    -153.683    -195.305
  P      156.216    -153.536    -195.065
  C      156.258    -155.669    -193.595
  O      155.848    -154.316    -193.710
  C      157.765    -155.778    -193.329
  O      158.131    -155.064    -192.111
  C      158.261    -157.219    -193.167
  O      159.586    -157.270    -193.718
  C      158.346    -157.379    -191.661
  O      159.180    -158.474    -191.295
  C      158.865    -155.993    -191.281
  N      161.315    -155.050    -186.968
  C      161.802    -155.438    -188.199
  N      163.143    -155.543    -188.314
  N      161.040    -155.699    -189.231
  C      159.720    -155.514    -188.980
  C      159.118    -155.118    -187.809
  C      159.970    -154.863    -186.667
  O      159.591    -154.513    -185.557
  N      157.754    -155.013    -187.955
  C      157.539    -155.415    -189.197
  N      158.698    -155.675    -189.876
  O      155.588    -154.450    -196.220
  O      155.726    -152.126    -195.144
  H      158.843    -159.270    -191.761
  H      155.283    -153.894    -196.960
  H      161.945    -154.877    -186.202
  H      156.569    -155.510    -189.660
  H      159.936    -155.878    -191.497
  H      157.348    -157.550    -191.242
  H      163.789    -155.309    -187.576
  H      157.626    -157.973    -193.641
  H      163.528    -155.786    -189.219
  H      158.294    -155.296    -194.161
  H      156.021    -156.211    -194.515
  H      155.680    -156.154    -192.802
  P      159.932    -158.462    -194.727
  C      161.339    -157.072    -196.394
  O      161.324    -158.107    -195.432
  O      158.857    -158.267    -195.902
  O      159.828    -159.832    -194.134
  H      158.545    -159.138    -196.208
  H      162.341    -156.639    -196.428
  H      160.621    -156.282    -196.156
  H      161.100    -157.489    -197.378
  H      159.372    -153.220    -196.535
  H      158.119    -152.006    -196.442
  H      157.845    -153.476    -197.346

 3  4  5  6  7  8  9  10  11  12  23  26  30  31 0
 6-311+G(2d,p)
 ****
 33  35  36  37  38 0
 6-311+G(2d,p)
 ****
 1  2  13  14  15  16  17  18  19  20  21  22  24  25 0
 3-21G
 ****
 27  28  29  32  34  39  40  41  42  43  44  45  46  47  48  49 0
 3-21G
 ****


