%nproc=1
%NoSave
%Mem=1900MB
#P OB98/GEN NMR

erre ene a

0 1
  C     -174.391     364.310     294.249
  O     -175.730     363.986     294.569
  H     -174.385     364.916     293.340
  H     -173.820     363.395     294.066
  H     -173.931     364.882     295.060
  P     -175.976     363.246     295.974
  C     -175.780     365.335     297.554
  O     -176.604     364.359     296.944
  C     -176.453     365.906     298.802
  O     -175.462     366.630     299.575
  C     -177.600     366.871     298.495
  O     -178.611     366.705     299.493
  C     -176.959     368.240     298.650
  O     -177.919     369.256     298.922
  C     -175.953     367.971     299.781
  N     -174.863     368.945     299.802
  C     -175.012     370.034     300.666
  O     -176.026     370.146     301.353
  N     -174.031     370.991     300.704
  C     -173.017     370.905     299.897
  N     -172.092     371.898     299.964
  C     -172.841     369.798     298.937
  C     -173.787     368.859     298.949
  O     -174.481     363.067     296.516
  O     -176.753     361.976     295.873
  H     -178.640     369.190     298.262
  H     -173.934     363.862     296.408
  H     -171.987     369.776     298.277
  H     -173.734     368.008     298.283
  H     -176.455     367.995     300.757
  H     -176.430     368.515     297.731
  H     -178.031     366.715     297.502
  H     -176.797     365.072     299.425
  H     -172.263     372.651     300.620
  H     -175.568     366.147     296.851
  H     -171.292     371.964     299.349
  H     -174.831     364.858     297.818
  P     -180.122     366.432     299.049
  C     -180.300     363.853     299.082
  O     -180.637     365.075     299.728
  O     -180.403     366.559     297.590
  O     -180.938     367.552     299.869
  H     -181.626     367.913     299.277
  H     -180.704     363.033     299.638
  H     -179.235     363.759     299.030
  H     -180.707     363.848     298.093

 6  7  8  9  10  11  12  13  14  15  16  26  30  31  32  33  35 0
 6-311+G(2d,p)
 ****
 37  38 0
 6-311+G(2d,p)
 ****
 1  2  3  4  5  17  18  19  20  21  22  23  24  25 0
 3-21G
 ****
 27  28  29  34  36  39  40  41  42  43  44  45  46 0
 3-21G
 ****


