%nproc=1
%NoSave
%Mem=1900MB
#P OB98/GEN NMR

erre ene a

0 1
  C      152.027      79.902     -57.840
  O      151.912      79.759     -56.440
  P      153.018      80.281     -55.412
  C      153.675      77.847     -54.783
  O      154.119      79.123     -55.229
  C      154.276      76.687     -55.592
  O      154.286      77.034     -56.992
  C      155.737      76.466     -55.191
  O      156.054      75.690     -54.054
  C      156.440      76.044     -56.475
  O      156.599      74.628     -56.571
  C      155.509      76.555     -57.574
  N      159.147      77.845     -60.861
  C      158.719      76.587     -60.487
  N      159.488      75.555     -60.900
  N      157.656      76.370     -59.758
  C      157.046      77.506     -59.341
  C      157.370      78.805     -59.657
  C      158.522      79.028     -60.496
  O      158.983      80.131     -60.781
  N      156.575      79.703     -58.993
  C      155.795      78.951     -58.243
  N      156.072      77.613     -58.390
  O      152.522      80.995     -54.197
  O      153.808      81.358     -56.317
  H      157.280      74.357     -55.929
  H      154.096      82.081     -55.726
  H      160.022      77.955     -61.358
  H      155.046      79.324     -57.556
  H      155.232      75.742     -58.256
  H      157.449      76.470     -56.523
  H      160.388      75.694     -61.336
  H      156.152      77.456     -54.957
  H      159.303      74.640     -60.507
  H      153.657      75.790     -55.512
  H      152.583      77.838     -54.849
  H      153.933      77.719     -53.729
  P      156.579      76.236     -52.646
  C      158.513      74.563     -52.710
  O      158.144      75.918     -52.531
  O      155.936      75.238     -51.570
  O      156.201      77.648     -52.337
  H      155.900      75.674     -50.698
  H      159.521      74.414     -52.319
  H      158.504      74.318     -53.777
  H      157.824      73.896     -52.181
  H      151.167      79.477     -58.314
  H      152.907      79.397     -58.179
  H      152.094      80.941     -58.088

 3  4  5  6  7  8  9  10  11  12  23  26  30  31 0
 6-311+G(2d,p)
 ****
 33  35  36  37  38 0
 6-311+G(2d,p)
 ****
 1  2  13  14  15  16  17  18  19  20  21  22  24  25 0
 3-21G
 ****
 27  28  29  32  34  39  40  41  42  43  44  45  46  47  48  49 0
 3-21G
 ****


