%nproc=1
%NoSave
%Mem=1900MB
#P OB98/GEN NMR

erre ene a

0 1
  C     -226.170      12.749      -8.039
  O     -224.820      13.053      -8.324
  H     -226.232      11.929      -7.318
  H     -226.646      13.635      -7.610
  H     -226.695      12.477      -8.959
  P     -223.916      11.842      -8.866
  C     -223.611       9.369      -8.152
  O     -224.015      10.674      -7.768
  C     -222.990       8.640      -6.968
  O     -221.751       9.271      -6.587
  C     -223.843       8.634      -5.704
  O     -224.879       7.664      -5.765
  C     -222.796       8.272      -4.660
  O     -222.573       6.849      -4.672
  C     -221.547       9.003      -5.174
  N     -218.794      11.339      -1.522
  C     -218.815      10.059      -1.955
  N     -219.578       9.508      -2.919
  C     -220.382      10.429      -3.477
  C     -220.472      11.769      -3.142
  C     -219.635      12.223      -2.109
  N     -219.633      13.527      -1.662
  N     -221.396      12.410      -3.937
  C     -221.860      11.474      -4.742
  N     -221.281      10.257      -4.496
  O     -222.418      12.386      -8.691
  O     -224.184      11.425     -10.272
  H     -223.371       6.438      -4.291
  H     -221.873      12.055      -9.430
  H     -218.119       9.384      -1.461
  H     -222.602      11.633      -5.513
  H     -220.652       8.375      -5.096
  H     -223.089       8.549      -3.645
  H     -224.239       9.633      -5.488
  H     -222.761       7.614      -7.285
  H     -222.871       9.439      -8.958
  H     -218.884      13.834      -1.068
  H     -220.262      14.185      -2.116
  H     -224.486       8.823      -8.521
  P     -226.344       8.115      -5.284
  C     -227.419       8.623      -2.978
  O     -226.287       8.122      -3.681
  O     -227.243       6.832      -5.615
  O     -226.874       9.347      -5.933
  H     -228.173       7.105      -5.744
  H     -227.239       8.566      -1.925
  H     -228.280       8.037      -3.225
  H     -227.589       9.642      -3.256

 6  7  8  9  10  11  12  13  14  15  25  28  32  33  34  35 0
 6-311+G(2d,p)
 ****
 36  39  40 0
 6-311+G(2d,p)
 ****
 1  2  3  4  5  16  17  18  19  20  21  22  23  24 0
 3-21G
 ****
 26  27  29  30  31  37  38  41  42  43  44  45  46  47  48 0
 3-21G
 ****


