%nproc=1
%NoSave
%Mem=1900MB
#P OB98/GEN NMR

erre ene a

0 1
  C     -127.672    -254.614      12.460
  O     -128.926    -255.286      12.360
  P     -129.163    -256.232      11.089
  C     -129.856    -254.434       9.311
  O     -128.891    -255.358       9.771
  C     -129.993    -254.493       7.778
  O     -131.188    -253.764       7.392
  C     -128.851    -253.845       6.997
  O     -128.882    -254.333       5.653
  C     -129.258    -252.387       7.014
  O     -128.577    -251.642       6.008
  C     -130.793    -252.470       6.863
  N     -131.516    -251.392       7.573
  C     -132.078    -250.364       6.821
  O     -132.010    -250.294       5.595
  N     -132.704    -249.372       7.527
  C     -132.857    -249.328       8.880
  O     -133.348    -248.372       9.467
  C     -132.371    -250.502       9.613
  C     -131.726    -251.458       8.942
  O     -130.743    -256.469      11.088
  O     -128.402    -257.514      11.145
  H     -127.670    -251.471       6.353
  H     -130.951    -257.370      11.398
  H     -133.057    -248.586       7.000
  H     -132.534    -250.534      10.683
  H     -131.340    -252.325       9.472
  H     -131.092    -252.419       5.807
  H     -129.000    -251.943       7.977
  H     -127.860    -253.999       7.430
  H     -130.129    -255.538       7.469
  H     -129.586    -253.423       9.627
  H     -130.829    -254.658       9.768
  P     -127.898    -255.543       5.272
  C     -126.009    -254.002       4.455
  O     -126.405    -254.972       5.406
  O     -128.207    -256.257       3.999
  O     -128.017    -256.513       6.543
  H     -127.706    -257.405       6.305
  H     -125.267    -253.343       4.911
  H     -126.861    -253.398       4.119
  H     -125.561    -254.505       3.594
  H     -127.654    -254.022      13.351
  H     -127.538    -253.980      11.609
  H     -126.883    -255.335      12.495

 3  4  5  6  7  8  9  10  11  12  13  23  28  29  30  31  32 0
 6-311+G(2d,p)
 ****
 33  34 0
 6-311+G(2d,p)
 ****
 1  2  14  15  16  17  18  19  20  21  22  24  25  26  27 0
 3-21G
 ****
 35  36  37  38  39  40  41  42  43  44  45 0
 3-21G
 ****


