%nproc=1
%NoSave
%Mem=1900MB
#P OB98/GEN NMR

erre ene a

0 1
  C     -119.806     276.583     101.659
  O     -118.999     275.501     102.084
  H     -119.595     277.448     102.295
  H     -120.866     276.336     101.746
  H     -119.567     276.844     100.625
  P     -119.318     274.043     101.496
  C     -117.584     274.144      99.590
  O     -118.969     274.129      99.927
  C     -117.352     273.572      98.191
  O     -115.951     273.632      97.844
  C     -117.728     272.107      98.046
  O     -119.105     271.838      98.161
  C     -116.994     271.720      96.770
  O     -117.719     272.084      95.596
  C     -115.707     272.576      96.885
  N     -114.542     271.777      97.247
  C     -113.839     271.212      96.188
  O     -114.169     271.338      95.008
  N     -112.752     270.460      96.534
  C     -112.338     270.183      97.801
  O     -111.361     269.482      98.045
  C     -113.142     270.777      98.882
  C     -114.191     271.538      98.557
  O     -120.694     273.516     101.782
  O     -118.144     273.127     102.080
  H     -117.188     271.787      94.832
  H     -118.362     272.168     101.992
  H     -112.217     270.053      95.778
  H     -112.849     270.571      99.900
  H     -114.801     271.991      99.339
  H     -115.496     273.072      95.928
  H     -116.804     270.648      96.715
  H     -117.246     271.547      98.859
  H     -117.897     274.197      97.472
  H     -117.056     273.527     100.325
  H     -117.205     275.170      99.649
  P     -119.733     270.373      98.073
  C     -119.200     269.971     100.600
  O     -119.126     269.487      99.265
  O     -119.816     269.759      96.716
  O     -121.242     270.637      98.587
  H     -121.825     270.021      98.095
  H     -118.751     269.260     101.262
  H     -120.225     270.114     100.871
  H     -118.679     270.903     100.671

 6  7  8  9  10  11  12  13  14  15  16  26  31  32  33  34  35 0
 6-311+G(2d,p)
 ****
 36  37 0
 6-311+G(2d,p)
 ****
 1  2  3  4  5  17  18  19  20  21  22  23  24  25 0
 3-21G
 ****
 27  28  29  30  38  39  40  41  42  43  44  45 0
 3-21G
 ****


