%nproc=1
%NoSave
%Mem=1900MB
#P OB98/GEN NMR

erre ene a

0 1
  C     -535.423     540.659     -44.565
  O     -536.316     540.291     -43.524
  P     -535.940     540.540     -41.977
  C     -533.896     538.974     -41.803
  O     -535.260     539.174     -41.495
  C     -533.240     538.103     -40.736
  O     -533.492     538.635     -39.431
  C     -533.758     536.652     -40.705
  O     -533.217     535.891     -41.776
  C     -533.323     536.225     -39.309
  O     -531.929     535.880     -39.303
  C     -533.544     537.518     -38.490
  N     -534.789     537.527     -37.743
  C     -534.867     536.621     -36.679
  O     -533.939     535.877     -36.398
  N     -536.035     536.602     -35.931
  C     -537.012     537.393     -36.229
  N     -538.101     537.380     -35.411
  C     -536.980     538.329     -37.375
  C     -535.852     538.341     -38.084
  O     -537.054     541.025     -41.132
  O     -534.686     541.548     -42.036
  H     -531.444     536.663     -39.627
  H     -534.949     542.501     -42.054
  H     -537.826     538.959     -37.586
  H     -535.738     539.009     -38.915
  H     -532.702     537.682     -37.806
  H     -533.892     535.383     -38.911
  H     -534.848     536.651     -40.769
  H     -532.146     538.111     -40.914
  H     -538.006     536.854     -34.545
  H     -533.385     539.949     -41.809
  H     -538.761     538.149     -35.386
  H     -533.802     538.520     -42.799
  P     -534.245     535.280     -42.853
  C     -535.515     533.761     -41.155
  O     -534.659     533.830     -42.276
  O     -533.319     534.976     -44.106
  O     -535.388     536.184     -43.175
  H     -533.430     535.670     -44.791
  H     -535.876     532.738     -41.062
  H     -536.379     534.419     -41.306
  H     -534.979     534.047     -40.254
  H     -535.857     540.411     -45.511
  H     -534.500     540.131     -44.447
  H     -535.239     541.712     -44.522

 3  4  5  6  7  8  9  10  11  12  13  23  27  28  29  30  32 0
 6-311+G(2d,p)
 ****
 34  35 0
 6-311+G(2d,p)
 ****
 1  2  14  15  16  17  18  19  20  21  22  24  25  26 0
 3-21G
 ****
 31  33  36  37  38  39  40  41  42  43  44  45  46 0
 3-21G
 ****


