%nproc=1
%NoSave
%Mem=1900MB
#P OB98/GEN NMR

erre ene a

0 1
  C       84.606     -22.011      -3.457
  O       83.782     -22.333      -2.352
  H       85.050     -22.931      -3.846
  H       85.408     -21.339      -3.138
  H       84.018     -21.538      -4.249
  P       82.858     -21.153      -1.785
  C       84.666     -20.539       0.015
  O       83.827     -20.101      -1.046
  C       85.263     -19.337       0.741
  O       85.976     -18.486      -0.179
  C       84.234     -18.410       1.365
  O       83.632     -18.961       2.516
  C       85.095     -17.188       1.657
  O       85.791     -17.315       2.903
  C       86.089     -17.197       0.470
  N       85.849     -16.093      -0.442
  C       86.820     -15.083      -0.430
  O       87.803     -15.179       0.306
  N       86.629     -13.980      -1.221
  C       85.554     -13.878      -1.939
  N       85.411     -12.744      -2.676
  C       84.505     -14.919      -1.979
  C       84.715     -15.990      -1.212
  O       82.098     -21.863      -0.571
  O       81.953     -20.528      -2.792
  H       86.380     -18.093       2.810
  H       82.686     -22.351       0.029
  H       83.634     -14.793      -2.605
  H       83.997     -16.802      -1.181
  H       87.122     -17.120       0.835
  H       84.493     -16.277       1.720
  H       83.479     -18.126       0.619
  H       85.973     -19.710       1.493
  H       86.125     -12.033      -2.576
  H       85.463     -21.187      -0.368
  H       84.582     -12.520      -3.208
  H       84.054     -21.134       0.700
  P       82.062     -18.804       2.792
  C       82.204     -16.663       4.220
  O       81.782     -17.231       2.984
  O       81.516     -19.662       3.883
  O       81.411     -19.082       1.355
  H       81.699     -18.476       0.650
  H       81.967     -15.620       4.233
  H       83.261     -16.790       4.328
  H       81.701     -17.153       5.028

 6  7  8  9  10  11  12  13  14  15  16  26  30  31  32  33  35 0
 6-311+G(2d,p)
 ****
 37  38 0
 6-311+G(2d,p)
 ****
 1  2  3  4  5  17  18  19  20  21  22  23  24  25 0
 3-21G
 ****
 27  28  29  34  36  39  40  41  42  43  44  45  46 0
 3-21G
 ****


