%nproc=1
%NoSave
%Mem=1900MB
#P OB98/GEN NMR

erre ene a

0 1
  C      123.029    -172.794     -85.597
  O      122.915    -172.106     -84.369
  H      123.331    -173.824     -85.392
  H      123.789    -172.327     -86.229
  H      122.066    -172.807     -86.117
  P      122.546    -170.546     -84.389
  C      120.259    -169.950     -85.434
  O      120.945    -170.447     -84.289
  C      118.820    -170.480     -85.459
  O      118.882    -171.928     -85.451
  C      118.005    -170.024     -84.238
  O      116.769    -169.405     -84.595
  C      117.954    -171.274     -83.368
  O      116.841    -171.337     -82.502
  C      118.041    -172.413     -84.389
  N      118.573    -173.659     -83.838
  C      117.654    -174.620     -83.419
  O      116.433    -174.503     -83.485
  N      118.196    -175.767     -82.900
  C      119.526    -176.039     -82.753
  O      119.948    -177.088     -82.285
  C      120.445    -174.976     -83.187
  C      119.936    -173.853     -83.701
  O      123.150    -169.755     -85.501
  O      123.027    -170.013     -82.958
  H      117.030    -172.034     -81.839
  H      123.850    -169.497     -83.064
  H      117.541    -176.477     -82.606
  H      121.506    -175.154     -83.071
  H      120.586    -173.050     -84.034
  H      117.055    -172.630     -84.803
  H      118.853    -171.293     -82.737
  H      118.532    -169.231     -83.693
  H      118.347    -170.172     -86.399
  H      120.804    -170.287     -86.323
  H      120.251    -168.855     -85.413
  P      116.505    -167.832     -84.620
  C      118.205    -166.347     -85.971
  O      117.094    -167.235     -85.981
  O      116.832    -167.094     -83.364
  O      114.909    -167.720     -84.844
  H      114.622    -166.908     -84.376
  H      118.444    -166.063     -86.975
  H      119.048    -166.835     -85.528
  H      117.959    -165.474     -85.403

 6  7  8  9  10  11  12  13  14  15  16  26  31  32  33  34  35 0
 6-311+G(2d,p)
 ****
 36  37 0
 6-311+G(2d,p)
 ****
 1  2  3  4  5  17  18  19  20  21  22  23  24  25 0
 3-21G
 ****
 27  28  29  30  38  39  40  41  42  43  44  45 0
 3-21G
 ****


