%nproc=1
%NoSave
%Mem=1900MB
#P OB98/GEN NMR

erre ene a

0 1
  C      -62.517     -27.761     -11.255
  O      -63.034     -27.981     -12.557
  P      -62.007     -28.444     -13.700
  C      -61.372     -25.939     -14.196
  O      -60.951     -27.248     -13.847
  C      -60.239     -24.939     -13.956
  O      -59.935     -24.869     -12.547
  C      -58.925     -25.295     -14.638
  O      -58.952     -25.000     -16.025
  C      -57.937     -24.462     -13.830
  O      -57.948     -23.097     -14.283
  C      -58.533     -24.555     -12.411
  N      -57.851     -25.531     -11.563
  C      -57.621     -25.147     -10.246
  O      -57.962     -24.056      -9.793
  N      -56.964     -26.061      -9.465
  C      -56.469     -27.263      -9.878
  O      -55.849     -28.025      -9.148
  C      -56.714     -27.599     -11.289
  C      -57.382     -26.733     -12.053
  O      -62.939     -28.327     -14.995
  O      -61.428     -29.795     -13.456
  H      -63.641     -27.664     -14.877
  H      -57.457     -22.580     -13.615
  H      -56.805     -25.815      -8.499
  H      -56.328     -28.542     -11.657
  H      -57.563     -26.960     -13.097
  H      -58.486     -23.577     -11.915
  H      -56.909     -24.827     -13.914
  H      -58.708     -26.360     -14.494
  H      -60.583     -23.948     -14.279
  H      -62.236     -25.668     -13.583
  H      -61.674     -25.931     -15.248
  P      -57.970     -25.862     -16.964
  C      -56.075     -24.097     -16.618
  O      -56.479     -25.446     -16.553
  O      -58.201     -25.160     -18.383
  O      -58.257     -27.328     -16.944
  H      -58.242     -24.192     -18.323
  H      -55.194     -23.963     -15.984
  H      -56.865     -23.426     -16.271
  H      -55.809     -23.844     -17.648
  H      -63.310     -27.459     -10.603
  H      -61.773     -26.993     -11.292
  H      -62.078     -28.665     -10.888

 3  4  5  6  7  8  9  10  11  12  13  24  28  29  30  31  32 0
 6-311+G(2d,p)
 ****
 33  34 0
 6-311+G(2d,p)
 ****
 1  2  14  15  16  17  18  19  20  21  22  23  25  26  27 0
 3-21G
 ****
 35  36  37  38  39  40  41  42  43  44  45 0
 3-21G
 ****


