%nproc=1
%NoSave
%Mem=1900MB
#P OB98/GEN NMR

erre ene a

0 1
  C      649.750    -622.755     424.509
  O      649.667    -622.069     423.271
  H      649.562    -623.822     424.332
  H      648.993    -622.376     425.197
  H      650.749    -622.642     424.944
  P      649.996    -620.498     423.292
  C      647.449    -620.029     423.148
  O      648.739    -619.762     422.615
  C      646.465    -618.921     422.771
  O      646.846    -617.699     423.470
  C      646.424    -618.596     421.267
  O      645.072    -618.246     420.937
  C      647.279    -617.344     421.163
  O      646.997    -616.588     419.988
  C      646.903    -616.646     422.476
  N      648.081    -611.806     421.780
  C      647.017    -612.547     421.313
  N      646.123    -611.897     420.530
  N      646.827    -613.813     421.578
  C      647.794    -614.324     422.399
  C      648.891    -613.700     422.927
  C      649.086    -612.303     422.604
  O      650.031    -611.609     422.972
  N      649.640    -614.577     423.689
  C      648.977    -615.726     423.613
  N      647.855    -615.617     422.841
  O      651.149    -620.372     422.188
  O      650.426    -619.952     424.614
  H      647.303    -617.118     419.219
  H      652.029    -620.430     422.606
  H      648.186    -610.833     421.537
  H      649.280    -616.643     424.098
  H      645.917    -616.175     422.425
  H      648.347    -617.613     421.157
  H      646.166    -610.908     420.323
  H      646.767    -619.408     420.624
  H      645.302    -612.410     420.213
  H      645.466    -619.196     423.152
  H      647.527    -620.091     424.245
  H      647.094    -620.990     422.761
  P      644.035    -619.436     420.647
  C      645.021    -619.735     418.254
  O      643.859    -619.574     419.058
  O      642.629    -618.809     421.114
  O      644.335    -620.708     421.379
  H      642.026    -619.511     421.401
  H      644.735    -619.812     417.226
  H      645.538    -620.625     418.548
  H      645.664    -618.890     418.383

 6  7  8  9  10  11  12  13  14  15  26  29  33  34 0
 6-311+G(2d,p)
 ****
 36  38  39  40  41 0
 6-311+G(2d,p)
 ****
 1  2  3  4  5  16  17  18  19  20  21  22  23  24  25 0
 3-21G
 ****
 27  28  30  31  32  35  37  42  43  44  45  46  47 0
 3-21G
 ****
 48  49 0
 3-21G
 ****


