%nproc=1
%NoSave
%Mem=1900MB
#P OB98/GEN NMR

erre ene a

0 1
  C     -148.446     140.532     -26.870
  O     -149.551     140.278     -26.016
  P     -149.432     140.733     -24.480
  C     -149.380     138.192     -23.894
  O     -148.830     139.482     -23.675
  C     -150.335     137.819     -22.759
  O     -151.179     136.724     -23.207
  C     -149.652     137.363     -21.466
  O     -150.493     137.774     -20.379
  C     -149.671     135.848     -21.579
  O     -149.537     135.201     -20.319
  C     -151.016     135.637     -22.268
  N     -152.280     130.752     -21.902
  C     -152.269     131.738     -20.931
  N     -152.716     131.379     -19.707
  N     -151.859     132.962     -21.143
  C     -151.458     133.175     -22.419
  C     -151.387     132.273     -23.456
  C     -151.877     130.935     -23.219
  O     -151.985     130.053     -24.068
  N     -150.842     132.839     -24.579
  C     -150.663     134.101     -24.246
  N     -151.064     134.366     -22.964
  O     -150.959     140.787     -24.007
  O     -148.709     142.022     -24.238
  H     -149.519     134.234     -20.479
  H     -151.324     141.688     -24.095
  H     -152.624     129.832     -21.684
  H     -150.252     134.866     -24.887
  H     -151.858     135.663     -21.565
  H     -148.843     135.519     -22.222
  H     -153.072     130.464     -19.482
  H     -148.642     137.765     -21.337
  H     -152.747     132.091     -18.990
  H     -150.992     138.676     -22.563
  H     -148.570     137.460     -23.920
  H     -149.896     138.175     -24.859
  P     -149.870     137.762     -18.900
  C     -151.375     135.789     -18.159
  O     -150.061     136.291     -18.305
  O     -150.922     138.637     -18.064
  O     -148.499     138.343     -18.795
  H     -150.459     139.116     -17.353
  H     -151.337     134.697     -18.136
  H     -152.022     136.100     -18.987
  H     -151.800     136.146     -17.214
  H     -148.668     140.177     -27.855
  H     -147.581     140.026     -26.495
  H     -148.256     141.584     -26.904

 3  4  5  6  7  8  9  10  11  12  23  26  30  31 0
 6-311+G(2d,p)
 ****
 33  35  36  37  38 0
 6-311+G(2d,p)
 ****
 1  2  13  14  15  16  17  18  19  20  21  22  24  25 0
 3-21G
 ****
 27  28  29  32  34  39  40  41  42  43  44  45  46  47  48  49 0
 3-21G
 ****


