%nproc=1
%NoSave
%Mem=1900MB
#P OB98/GEN NMR

erre ene a

0 1
  C        7.553     352.378     499.480
  O        7.142     353.602     500.048
  H        8.298     351.917     500.136
  H        8.009     352.550     498.500
  H        6.703     351.698     499.380
  P        6.021     354.439     499.254
  C        4.313     354.927     501.155
  O        5.380     355.419     500.357
  C        4.857     354.234     502.406
  O        5.638     355.184     503.174
  C        3.761     353.685     503.320
  O        4.137     352.384     503.783
  C        3.707     354.671     504.474
  O        3.220     354.073     505.674
  C        5.155     355.173     504.531
  N        5.245     356.500     505.137
  C        4.873     356.606     506.480
  O        4.476     355.614     507.096
  N        4.906     357.838     507.081
  C        5.221     358.886     506.384
  N        5.212     360.084     507.030
  C        5.575     358.828     504.953
  C        5.571     357.616     504.401
  O        4.876     353.355     499.001
  O        6.497     355.122     498.015
  H        2.422     353.547     505.451
  H        4.216     353.674     498.338
  H        5.814     359.734     504.411
  H        5.816     357.478     503.351
  H        5.785     354.480     505.108
  H        3.034     355.496     504.214
  H        2.793     353.613     502.828
  H        5.548     353.443     502.094
  H        4.953     360.084     508.011
  H        3.727     354.213     500.567
  H        5.412     360.964     506.582
  H        3.667     355.762     501.448
  P        3.490     351.144     502.998
  C        5.045     349.235     503.808
  O        3.756     349.824     503.872
  O        4.446     350.964     501.727
  O        2.063     351.359     502.612
  H        4.047     351.377     500.941
  H        5.074     348.370     504.437
  H        5.777     349.942     504.140
  H        5.257     348.949     502.799

 6  7  8  9  10  11  12  13  14  15  16  26  30  31  32  33  35 0
 6-311+G(2d,p)
 ****
 37  38 0
 6-311+G(2d,p)
 ****
 1  2  3  4  5  17  18  19  20  21  22  23  24  25 0
 3-21G
 ****
 27  28  29  34  36  39  40  41  42  43  44  45  46 0
 3-21G
 ****


