%nproc=1
%NoSave
%Mem=1900MB
#P OB98/GEN NMR

erre ene a

0 1
  C      466.273      26.534    1324.334
  O      465.405      27.384    1325.056
  H      466.202      26.778    1323.268
  H      465.982      25.489    1324.472
  H      467.308      26.677    1324.656
  P      465.327      27.229    1326.649
  C      463.501      25.379    1326.597
  O      463.820      26.731    1326.918
  C      462.146      25.008    1327.173
  O      462.134      25.124    1328.617
  C      460.983      25.882    1326.714
  O      460.586      25.637    1325.375
  C      459.924      25.468    1327.712
  O      459.398      24.183    1327.368
  C      460.759      25.408    1329.020
  N      460.696      26.648    1329.798
  C      459.560      26.829    1330.600
  O      458.679      25.980    1330.628
  N      459.442      27.993    1331.324
  C      460.372      28.901    1331.234
  N      460.198      30.029    1331.983
  C      461.570      28.751    1330.394
  C      461.667      27.618    1329.707
  O      465.761      28.415    1327.448
  O      466.164      25.901    1326.966
  H      458.738      23.951    1328.048
  H      466.154      25.761    1327.944
  H      462.293      29.555    1330.337
  H      462.526      27.452    1329.053
  H      460.432      24.579    1329.658
  H      459.079      26.161    1327.763
  H      461.215      26.948    1326.863
  H      461.959      23.948    1326.940
  H      459.368      30.102    1332.553
  H      464.300      24.739    1326.999
  H      460.824      30.826    1331.919
  H      463.469      25.255    1325.512
  P      460.464      26.926    1324.402
  C      457.863      27.168    1324.323
  O      459.049      26.789    1323.657
  O      461.546      26.616    1323.262
  O      460.692      28.242    1325.076
  H      462.376      27.101    1323.439
  H      457.025      27.009    1323.677
  H      457.918      28.203    1324.587
  H      457.748      26.579    1325.209

 6  7  8  9  10  11  12  13  14  15  16  26  30  31  32  33  35 0
 6-311+G(2d,p)
 ****
 37  38 0
 6-311+G(2d,p)
 ****
 1  2  3  4  5  17  18  19  20  21  22  23  24  25 0
 3-21G
 ****
 27  28  29  34  36  39  40  41  42  43  44  45  46 0
 3-21G
 ****


