%nproc=1
%NoSave
%Mem=1900MB
#P OB98/GEN NMR

erre ene a

0 1
  C     -319.117     481.289     132.808
  O     -319.546     481.483     134.134
  P     -320.727     482.472     134.548
  C     -322.777     480.875     134.840
  O     -322.114     481.848     134.042
  C     -324.225     481.296     135.128
  O     -324.802     480.363     136.074
  C     -324.294     482.695     135.778
  O     -325.339     483.515     135.283
  C     -324.303     482.367     137.268
  O     -324.800     483.422     138.073
  C     -325.098     481.070     137.295
  N     -326.484     479.609     141.964
  C     -327.188     480.359     141.046
  N     -328.324     480.939     141.496
  N     -326.794     480.548     139.813
  C     -325.589     479.996     139.539
  C     -324.799     479.235     140.369
  C     -325.258     479.006     141.721
  O     -324.613     478.442     142.603
  N     -323.606     478.904     139.778
  C     -323.656     479.496     138.601
  N     -324.825     480.201     138.427
  O     -320.492     483.928     134.331
  O     -320.814     482.224     136.143
  H     -324.098     484.099     138.145
  H     -321.066     483.075     136.555
  H     -326.803     479.570     142.926
  H     -322.870     479.475     137.855
  H     -326.174     481.261     137.319
  H     -323.265     482.198     137.575
  H     -328.575     480.938     142.475
  H     -323.393     483.266     135.547
  H     -328.717     481.686     140.927
  H     -324.810     481.238     134.205
  H     -322.213     480.805     135.776
  H     -322.749     479.896     134.356
  P     -325.568     485.081     135.493
  C     -324.190     485.928     133.503
  O     -324.295     485.867     134.910
  O     -325.430     485.310     137.073
  O     -326.883     485.591     135.008
  H     -326.096     485.965     137.362
  H     -323.163     486.237     133.245
  H     -324.891     486.674     133.116
  H     -324.393     484.958     133.048
  H     -318.315     480.580     132.793
  H     -318.778     482.220     132.403
  H     -319.931     480.919     132.220

 3  4  5  6  7  8  9  10  11  12  23  26  30  31 0
 6-311+G(2d,p)
 ****
 33  35  36  37  38 0
 6-311+G(2d,p)
 ****
 1  2  13  14  15  16  17  18  19  20  21  22  24  25 0
 3-21G
 ****
 27  28  29  32  34  39  40  41  42  43  44  45  46  47  48  49 0
 3-21G
 ****


