%nproc=1
%NoSave
%Mem=1900MB
#P OB98/GEN NMR

erre ene a

0 1
  C     -387.328    -916.039    -234.381
  O     -387.409    -917.410    -234.702
  H     -388.203    -915.532    -234.803
  H     -386.431    -915.609    -234.822
  H     -387.330    -915.876    -233.300
  P     -386.419    -918.432    -233.961
  C     -387.959    -919.653    -232.291
  O     -386.992    -918.628    -232.476
  C     -389.348    -919.053    -232.021
  O     -389.740    -918.243    -233.164
  C     -390.447    -920.114    -231.790
  O     -391.399    -919.540    -230.887
  C     -391.040    -920.236    -233.181
  O     -392.314    -920.839    -233.151
  C     -391.001    -918.777    -233.643
  N     -391.124    -918.645    -235.100
  C     -392.186    -917.879    -235.564
  O     -393.014    -917.349    -234.818
  N     -392.309    -917.763    -236.920
  C     -391.522    -918.404    -237.840
  O     -391.692    -918.295    -239.055
  C     -390.437    -919.230    -237.288
  C     -390.290    -919.317    -235.982
  O     -384.968    -918.096    -234.029
  O     -386.731    -919.857    -234.634
  H     -392.688    -920.884    -234.056
  H     -385.933    -920.406    -234.639
  H     -393.069    -917.209    -237.277
  H     -389.800    -919.753    -237.995
  H     -389.503    -919.923    -235.537
  H     -391.800    -918.200    -233.185
  H     -390.400    -920.858    -233.822
  H     -390.068    -921.054    -231.399
  H     -389.265    -918.372    -231.160
  H     -387.648    -920.262    -231.437
  H     -387.993    -920.282    -233.187
  P     -391.161    -919.499    -229.308
  C     -392.118    -917.300    -228.381
  O     -390.952    -917.986    -228.838
  O     -390.109    -920.439    -228.817
  O     -392.587    -919.899    -228.670
  H     -392.456    -920.324    -227.802
  H     -391.856    -916.303    -228.095
  H     -392.528    -917.816    -227.538
  H     -392.843    -917.267    -229.167

 6  7  8  9  10  11  12  13  14  15  16  26  31  32  33  34  35 0
 6-311+G(2d,p)
 ****
 36  37 0
 6-311+G(2d,p)
 ****
 1  2  3  4  5  17  18  19  20  21  22  23  24  25 0
 3-21G
 ****
 27  28  29  30  38  39  40  41  42  43  44  45 0
 3-21G
 ****


