%nproc=1
%NoSave
%Mem=1900MB
#P OB98/GEN NMR

erre ene a

0 1
  C     -369.980     159.730     386.261
  O     -369.892     161.089     385.877
  H     -370.897     159.306     385.843
  H     -370.019     159.647     387.351
  H     -369.123     159.174     385.873
  P     -368.594     161.891     386.376
  C     -370.002     162.436     388.477
  O     -368.764     161.965     387.970
  C     -369.854     163.859     389.015
  O     -371.125     164.376     389.445
  C     -368.928     163.977     390.223
  O     -367.572     164.004     389.819
  C     -369.375     165.318     390.788
  O     -368.774     166.389     390.035
  C     -370.897     165.294     390.545
  N     -372.680     166.611     395.175
  C     -371.766     167.192     394.370
  N     -371.310     166.761     393.172
  C     -371.897     165.607     392.822
  C     -372.848     164.902     393.544
  C     -373.252     165.453     394.773
  N     -374.194     164.865     395.587
  N     -373.221     163.756     392.871
  C     -372.550     163.798     391.738
  N     -371.706     164.880     391.676
  O     -368.319     163.177     385.677
  O     -367.460     160.770     386.206
  H     -369.089     166.317     389.117
  H     -367.805     159.895     386.458
  H     -371.342     168.126     394.728
  H     -372.644     163.086     390.928
  H     -371.272     166.277     390.237
  H     -369.069     165.453     391.831
  H     -369.127     163.194     390.960
  H     -369.505     164.494     388.193
  H     -370.369     161.776     389.270
  H     -374.298     165.232     396.517
  H     -374.523     163.943     395.342
  H     -370.723     162.420     387.652
  P     -366.392     163.855     390.894
  C     -366.096     166.408     390.867
  O     -366.305     165.254     391.674
  O     -365.096     163.367     390.349
  O     -366.984     162.863     392.000
  H     -366.286     162.259     392.322
  H     -366.055     167.277     391.490
  H     -366.902     166.507     390.170
  H     -365.174     166.308     390.334

 6  7  8  9  10  11  12  13  14  15  25  28  32  33  34  35 0
 6-311+G(2d,p)
 ****
 36  39  40 0
 6-311+G(2d,p)
 ****
 1  2  3  4  5  16  17  18  19  20  21  22  23  24 0
 3-21G
 ****
 26  27  29  30  31  37  38  41  42  43  44  45  46  47 0
 3-21G
 ****
 48 0
 3-21G
 ****


