%nproc=1
%NoSave
%Mem=1900MB
#P OB98/GEN NMR

erre ene a

0 1
  C      123.699     -40.685      31.799
  O      123.332     -41.996      32.179
  H      124.737     -40.696      31.459
  H      123.619     -40.018      32.661
  H      123.065     -40.322      30.986
  P      121.767     -42.276      32.396
  C      121.812     -41.851      34.956
  O      121.329     -41.431      33.690
  C      121.715     -40.711      35.964
  O      122.548     -39.604      35.555
  C      120.309     -40.147      36.142
  O      119.546     -40.923      37.056
  C      120.626     -38.778      36.721
  O      120.971     -38.909      38.117
  C      121.865     -38.369      35.913
  N      121.341     -33.750      33.887
  C      121.579     -34.121      35.197
  N      121.683     -33.119      36.095
  N      121.698     -35.361      35.593
  C      121.546     -36.259      34.590
  C      121.302     -36.014      33.257
  C      121.189     -34.639      32.831
  O      120.990     -34.256      31.681
  N      121.208     -37.178      32.539
  C      121.374     -38.125      33.441
  N      121.579     -37.620      34.701
  O      121.748     -43.794      32.909
  O      120.915     -42.101      31.184
  H      121.163     -38.013      38.449
  H      121.479     -44.372      32.170
  H      121.248     -32.780      33.638
  H      121.361     -39.186      33.233
  H      122.565     -37.766      36.501
  H      119.779     -38.092      36.668
  H      121.580     -32.144      35.863
  H      119.794     -40.029      35.181
  H      121.861     -33.368      37.061
  H      122.108     -41.076      36.922
  H      122.858     -42.160      34.855
  H      121.217     -42.704      35.299
  P      117.962     -41.030      36.823
  C      117.381     -39.248      38.616
  O      117.331     -39.613      37.244
  O      117.501     -42.010      38.001
  O      117.548     -41.547      35.489
  H      117.206     -42.863      37.627
  H      116.927     -38.288      38.746
  H      118.401     -39.207      38.937
  H      116.853     -39.974      39.198

 6  7  8  9  10  11  12  13  14  15  26  29  33  34 0
 6-311+G(2d,p)
 ****
 36  38  39  40  41 0
 6-311+G(2d,p)
 ****
 1  2  3  4  5  16  17  18  19  20  21  22  23  24  25 0
 3-21G
 ****
 27  28  30  31  32  35  37  42  43  44  45  46  47 0
 3-21G
 ****
 48  49 0
 3-21G
 ****


