%nproc=1
%NoSave
%Mem=1900MB
#P OB98/GEN NMR

erre ene a

0 1
  C      241.352      54.005     -29.661
  O      240.164      54.469     -30.292
  P      239.845      53.955     -31.777
  C      240.488      54.796     -34.148
  O      240.832      54.747     -32.770
  C      241.722      54.630     -35.033
  O      242.293      53.311     -34.805
  C      241.450      54.756     -36.536
  O      242.619      55.338     -37.132
  C      241.334      53.309     -36.986
  O      241.557      53.161     -38.388
  C      242.394      52.661     -36.094
  N      244.588      48.223     -34.797
  C      245.058      49.487     -34.806
  N      244.414      50.619     -35.165
  C      243.153      50.348     -35.545
  C      242.544      49.105     -35.622
  C      243.317      48.000     -35.217
  N      242.836      46.710     -35.196
  N      241.250      49.222     -36.085
  C      241.078      50.516     -36.284
  N      242.190      51.234     -35.950
  O      238.413      54.608     -32.073
  O      239.812      52.475     -31.948
  H      241.721      52.216     -38.571
  H      237.731      53.909     -32.118
  H      246.085      49.610     -34.481
  H      240.178      50.973     -36.669
  H      243.410      52.821     -36.475
  H      240.335      52.927     -36.757
  H      240.563      55.345     -36.781
  H      242.475      55.361     -34.716
  H      240.032      55.767     -34.363
  H      243.403      45.995     -34.770
  H      241.841      46.558     -35.327
  H      239.754      54.011     -34.369
  P      242.431      56.019     -38.575
  C      241.407      54.942     -40.699
  O      242.337      54.828     -39.642
  O      243.867      56.671     -38.859
  O      241.340      57.039     -38.631
  H      243.767      57.448     -39.446
  H      241.818      54.449     -41.585
  H      241.187      55.988     -40.941
  H      240.475      54.440     -40.414
  H      241.426      54.432     -28.683
  H      242.202      54.296     -30.242
  H      241.321      52.938     -29.583

 3  4  5  6  7  8  9  10  11  12  22  25  29  30  31  32 0
 6-311+G(2d,p)
 ****
 33  36  37 0
 6-311+G(2d,p)
 ****
 1  2  13  14  15  16  17  18  19  20  21  23  24  26 0
 3-21G
 ****
 27  28  34  35  38  39  40  41  42  43  44  45  46  47  48 0
 3-21G
 ****


