%nproc=1
%NoSave
%Mem=1900MB
#P OB98/GEN NMR

erre ene a

0 1
  C      746.357     439.273    1226.518
  O      747.613     439.946    1226.336
  P      747.749     441.357    1225.551
  C      749.598     440.340    1224.058
  O      749.199     441.438    1224.884
  C      750.951     440.590    1223.387
  O      750.869     441.722    1222.486
  C      752.086     440.918    1224.346
  O      752.545     439.755    1225.024
  C      753.089     441.568    1223.398
  O      753.860     440.565    1222.713
  C      752.168     442.323    1222.417
  N      752.115     443.750    1222.708
  C      752.759     444.588    1221.783
  O      753.384     444.107    1220.836
  N      752.695     445.965    1222.001
  C      752.107     446.424    1223.058
  N      752.076     447.763    1223.198
  C      751.499     445.565    1224.085
  C      751.527     444.259    1223.842
  O      747.378     442.549    1226.391
  O      746.760     441.226    1224.296
  H      753.250     440.101    1222.102
  H      746.411     442.114    1224.086
  H      751.033     445.991    1224.980
  H      751.090     443.547    1224.554
  H      752.523     442.191    1221.385
  H      753.809     442.212    1223.911
  H      751.745     441.666    1225.079
  H      751.200     439.694    1222.790
  H      752.499     448.339    1222.476
  H      748.829     440.187    1223.282
  H      751.634     448.232    1223.984
  H      749.636     439.440    1224.685
  P      752.112     439.496    1226.537
  C      754.283     440.607    1227.364
  O      753.460     439.457    1227.421
  O      751.175     438.359    1226.764
  O      751.450     440.896    1226.993
  H      750.758     440.712    1227.656
  H      754.923     440.605    1228.258
  H      753.707     441.515    1227.310
  H      754.933     440.519    1226.466
  H      746.514     438.365    1227.062
  H      745.932     439.047    1225.563
  H      745.689     439.906    1227.065

 3  4  5  6  7  8  9  10  11  12  13  23  27  28  29  30  32 0
 6-311+G(2d,p)
 ****
 34  35 0
 6-311+G(2d,p)
 ****
 1  2  14  15  16  17  18  19  20  21  22  24  25  26 0
 3-21G
 ****
 31  33  36  37  38  39  40  41  42  43  44  45  46 0
 3-21G
 ****


