%nproc=1
%NoSave
%Mem=1900MB
#P OB98/GEN NMR

erre ene a

0 1
  C       -1.273     -47.506     -21.849
  O       -2.534     -47.198     -21.281
  P       -2.730     -45.770     -20.584
  C       -2.765     -43.351     -21.536
  O       -2.207     -44.653     -21.610
  C       -1.728     -42.302     -21.944
  O       -0.758     -42.139     -20.866
  C       -0.944     -42.660     -23.215
  O       -0.655     -41.436     -23.904
  C        0.339     -43.244     -22.654
  O        1.407     -43.247     -23.588
  C        0.549     -42.323     -21.447
  N        1.499     -42.864     -20.478
  C        2.777     -43.165     -20.936
  O        3.148     -43.005     -22.098
  N        3.622     -43.727     -20.017
  C        3.298     -44.091     -18.743
  O        4.067     -44.698     -18.007
  C        1.933     -43.749     -18.314
  C        1.110     -43.160     -19.185
  O       -1.624     -45.772     -19.428
  O       -4.099     -45.521     -20.047
  H        1.573     -42.322     -23.847
  H       -2.032     -45.981     -18.567
  H        4.556     -43.941     -20.329
  H        1.648     -44.005     -17.302
  H        0.092     -42.914     -18.902
  H        0.893     -41.336     -21.782
  H        0.162     -44.279     -22.341
  H       -1.472     -43.354     -23.875
  H       -2.237     -41.338     -22.070
  H       -3.086     -43.157     -20.511
  H       -3.648     -43.292     -22.181
  P       -0.547     -41.483     -25.506
  C       -2.101     -42.449     -27.372
  O       -1.706     -42.461     -26.017
  O        0.793     -42.343     -25.688
  O       -0.483     -40.134     -26.143
  H        0.833     -43.105     -25.087
  H       -1.256     -42.245     -28.035
  H       -2.867     -41.684     -27.518
  H       -2.522     -43.424     -27.627
  H       -1.303     -48.488     -22.272
  H       -0.521     -47.468     -21.089
  H       -1.043     -46.795     -22.615

 3  4  5  6  7  8  9  10  11  12  13  23  28  29  30  31  32 0
 6-311+G(2d,p)
 ****
 33  34 0
 6-311+G(2d,p)
 ****
 1  2  14  15  16  17  18  19  20  21  22  24  25  26 0
 3-21G
 ****
 27  35  36  37  38  39  40  41  42  43  44  45 0
 3-21G
 ****


