%nproc=1
%NoSave
%Mem=1900MB
#P OB98/GEN NMR

erre ene a

0 1
  C       32.824      66.479     -87.439
  O       31.664      65.881     -88.005
  P       31.878      64.633     -88.994
  C       32.515      66.219     -90.950
  O       32.911      65.140     -90.111
  C       32.776      65.882     -92.415
  O       34.184      65.664     -92.631
  C       32.085      64.619     -92.908
  O       30.729      64.851     -93.259
  C       32.907      64.306     -94.147
  O       32.487      65.148     -95.237
  C       34.322      64.686     -93.697
  N       37.818      61.177     -94.963
  C       37.196      62.128     -95.689
  N       36.268      63.020     -95.281
  C       35.966      62.831     -93.985
  C       36.489      61.877     -93.130
  C       37.472      61.024     -93.662
  N       38.126      60.072     -92.913
  N       35.933      61.992     -91.875
  C       35.096      63.004     -91.966
  N       35.087      63.552     -93.220
  O       30.488      64.557     -89.785
  O       32.213      63.346     -88.322
  H       31.511      65.148     -95.235
  H       30.351      63.655     -90.133
  H       37.491      62.192     -96.733
  H       34.487      63.378     -91.155
  H       34.899      65.160     -94.499
  H       32.793      63.270     -94.483
  H       32.187      63.801     -92.184
  H       32.472      66.747     -93.019
  H       33.086      67.111     -90.681
  H       38.937      59.631     -93.315
  H       38.009      60.098     -91.906
  H       31.450      66.422     -90.789
  P       29.693      63.659     -92.963
  C       30.448      62.506     -95.166
  O       30.260      62.396     -93.768
  O       28.395      64.098     -93.790
  O       29.401      63.450     -91.516
  H       27.592      63.705     -93.401
  H       31.111      61.701     -95.493
  H       30.905      63.463     -95.429
  H       29.488      62.400     -95.677
  H       32.534      67.291     -86.806
  H       33.455      66.845     -88.222
  H       33.356      65.751     -86.863

 3  4  5  6  7  8  9  10  11  12  22  25  29  30  31  32 0
 6-311+G(2d,p)
 ****
 33  36  37 0
 6-311+G(2d,p)
 ****
 1  2  13  14  15  16  17  18  19  20  21  23  24  26 0
 3-21G
 ****
 27  28  34  35  38  39  40  41  42  43  44  45  46  47  48 0
 3-21G
 ****


