%nproc=1
%NoSave
%Mem=1900MB
#P OB98/GEN NMR

erre ene a

0 1
  C       30.196    -226.437     345.079
  O       29.994    -227.571     344.260
  H       31.229    -226.104     344.970
  H       30.023    -226.708     346.125
  H       29.527    -225.622     344.789
  P       28.480    -228.043     344.024
  C       28.330    -229.436     346.206
  O       27.842    -228.320     345.474
  C       27.502    -229.638     347.478
  O       26.108    -229.797     347.109
  C       27.911    -230.874     348.289
  O       27.826    -230.560     349.685
  C       26.851    -231.903     347.932
  O       26.683    -232.891     348.945
  C       25.635    -231.016     347.714
  N       22.720    -235.101     347.245
  C       23.544    -234.706     348.283
  N       23.604    -235.526     349.357
  N       24.244    -233.602     348.270
  C       24.055    -232.864     347.151
  C       23.278    -233.146     346.055
  C       22.527    -234.386     346.068
  O       21.800    -234.802     345.172
  N       23.377    -232.159     345.104
  C       24.217    -231.285     345.625
  N       24.649    -231.663     346.870
  O       28.650    -229.509     343.402
  O       27.668    -227.163     343.135
  H       25.845    -233.365     348.757
  H       28.308    -229.518     342.489
  H       22.212    -235.969     347.303
  H       24.547    -230.376     345.147
  H       25.135    -230.757     348.657
  H       27.134    -232.411     347.004
  H       23.057    -236.363     349.455
  H       28.921    -231.226     348.060
  H       24.169    -235.238     350.143
  H       27.570    -228.733     348.086
  H       29.376    -229.258     346.474
  H       28.272    -230.334     345.580
  P       29.179    -230.094     350.412
  C       29.849    -232.472     351.189
  O       30.203    -231.333     350.414
  O       28.743    -229.963     351.946
  O       29.735    -228.811     349.889
  H       28.694    -229.020     352.198
  H       30.614    -233.215     351.100
  H       28.921    -232.870     350.834
  H       29.746    -232.187     352.215

 6  7  8  9  10  11  12  13  14  15  26  29  33  34 0
 6-311+G(2d,p)
 ****
 36  38  39  40  41 0
 6-311+G(2d,p)
 ****
 1  2  3  4  5  16  17  18  19  20  21  22  23  24  25 0
 3-21G
 ****
 27  28  30  31  32  35  37  42  43  44  45  46  47 0
 3-21G
 ****
 48  49 0
 3-21G
 ****


