%nproc=1
%NoSave
%Mem=1900MB
#P OB98/GEN NMR

erre ene a

0 1
  C       42.432    -899.010     737.353
  O       43.492    -898.870     738.290
  H       42.535    -900.000     736.879
  H       42.507    -898.240     736.581
  H       41.464    -898.960     737.849
  P       43.541    -897.550     739.197
  C       45.824    -897.030     738.120
  O       44.543    -896.510     738.479
  C       46.810    -895.890     737.889
  O       47.088    -895.250     739.166
  C       48.145    -896.350     737.291
  O       48.605    -895.370     736.373
  C       49.087    -896.400     738.476
  O       50.446    -896.210     738.128
  C       48.525    -895.260     739.352
  N       49.573    -892.830     743.656
  C       49.201    -892.330     742.414
  N       49.136    -890.990     742.293
  N       48.930    -893.100     741.401
  C       49.034    -894.420     741.651
  C       49.390    -895.050     742.835
  C       49.694    -894.190     743.969
  O       50.035    -894.550     745.090
  N       49.398    -896.400     742.703
  C       49.069    -896.620     741.438
  N       48.845    -895.450     740.759
  O       43.820    -897.780     740.645
  O       42.097    -896.880     738.965
  H       50.523    -895.330     737.702
  H       41.502    -897.070     739.719
  H       49.777    -892.220     744.414
  H       48.985    -897.580     740.978
  H       48.920    -894.280     739.067
  H       48.984    -897.360     739.007
  H       49.314    -890.360     743.063
  H       48.076    -897.340     736.802
  H       48.845    -890.610     741.389
  H       46.327    -895.150     737.246
  H       45.720    -897.620     737.205
  H       46.169    -897.700     738.931
  P       48.199    -895.520     734.818
  C       50.417    -896.760     734.566
  O       49.053    -896.710     734.182
  O       48.171    -894.220     734.025
  O       46.698    -896.140     734.909
  H       46.190    -895.850     734.136
  H       50.893    -897.589     734.086
  H       50.485    -896.876     735.628
  H       50.903    -895.852     734.275

 6  7  8  9  10  11  12  13  14  15  26  29  33  34 0
 6-311+G(2d,p)
 ****
 36  38  39  40  41 0
 6-311+G(2d,p)
 ****
 1  2  3  4  5  16  17  18  19  20  21  22  23  24  25 0
 3-21G
 ****
 27  28  30  31  32  35  37  42  43  44  45  46  47 0
 3-21G
 ****
 48  49 0
 3-21G
 ****


