%nproc=1
%NoSave
%Mem=1900MB
#P OB98/GEN NMR

erre ene a

0 1
  C      436.570    -261.373     -79.765
  O      436.148    -261.076     -78.445
  P      436.739    -259.809     -77.661
  C      438.334    -260.724     -75.854
  O      438.216    -260.248     -77.190
  C      438.158    -262.244     -75.794
  O      438.876    -262.879     -76.868
  C      438.672    -262.881     -74.508
  O      437.761    -262.667     -73.438
  C      438.814    -264.337     -74.934
  O      437.560    -265.033     -74.860
  C      439.275    -264.195     -76.407
  N      440.706    -264.418     -76.564
  C      441.095    -265.722     -76.904
  O      440.244    -266.605     -77.021
  N      442.429    -265.993     -77.060
  C      443.308    -265.053     -76.860
  N      444.622    -265.382     -77.009
  C      442.947    -263.675     -76.474
  C      441.640    -263.430     -76.343
  O      435.865    -259.252     -76.592
  O      437.046    -258.767     -78.844
  H      437.751    -265.958     -75.107
  H      436.212    -258.359     -79.193
  H      443.709    -262.929     -76.311
  H      441.285    -262.441     -76.053
  H      438.744    -264.918     -77.046
  H      439.528    -264.884     -74.309
  H      439.664    -262.472     -74.261
  H      437.084    -262.470     -75.917
  H      444.830    -266.346     -77.253
  H      437.564    -260.244     -75.244
  H      445.378    -264.742     -76.847
  H      439.318    -260.435     -75.452
  P      438.309    -262.560     -71.937
  C      437.516    -264.603     -70.589
  O      438.549    -264.053     -71.395
  O      437.518    -261.665     -71.034
  O      439.802    -262.004     -72.119
  H      439.958    -261.299     -71.458
  H      437.629    -265.693     -70.573
  H      436.532    -264.354     -70.998
  H      437.608    -264.216     -69.573
  H      436.065    -262.250     -80.112
  H      437.626    -261.544     -79.772
  H      436.338    -260.549     -80.407

 3  4  5  6  7  8  9  10  11  12  13  23  27  28  29  30  32 0
 6-311+G(2d,p)
 ****
 34  35 0
 6-311+G(2d,p)
 ****
 1  2  14  15  16  17  18  19  20  21  22  24  25  26 0
 3-21G
 ****
 31  33  36  37  38  39  40  41  42  43  44  45  46 0
 3-21G
 ****


