%nproc=1
%NoSave
%Mem=1900MB
#P OB98/GEN NMR

erre ene a

0 1
  C      113.832    -361.810    -390.736
  O      113.804    -362.594    -389.536
  P      113.334    -361.868    -388.185
  C      115.690    -361.794    -387.108
  O      114.574    -361.052    -387.568
  C      115.844    -361.705    -385.584
  O      116.193    -360.340    -385.177
  C      114.569    -362.069    -384.822
  O      114.949    -362.629    -383.547
  C      113.921    -360.720    -384.580
  O      112.957    -360.774    -383.526
  C      115.159    -359.869    -384.293
  N      112.494    -355.888    -382.689
  C      112.464    -357.210    -382.275
  N      111.622    -357.505    -381.258
  N      113.192    -358.155    -382.805
  C      114.018    -357.702    -383.791
  C      114.126    -356.424    -384.294
  C      113.298    -355.401    -383.707
  O      113.270    -354.211    -384.050
  N      115.057    -356.372    -385.311
  C      115.489    -357.614    -385.422
  N      114.913    -358.449    -384.499
  O      113.146    -363.093    -387.165
  O      112.064    -361.089    -388.330
  H      112.591    -359.867    -383.418
  H      112.194    -363.244    -387.004
  H      111.901    -355.208    -382.243
  H      116.208    -357.961    -386.157
  H      115.516    -359.982    -383.263
  H      113.417    -360.388    -385.492
  H      111.073    -356.814    -380.769
  H      113.912    -362.769    -385.343
  H      111.614    -358.454    -380.906
  H      116.673    -362.353    -385.271
  H      116.612    -361.432    -387.583
  H      115.591    -362.841    -387.433
  P      114.857    -364.223    -383.399
  C      112.520    -364.131    -382.264
  O      113.295    -364.580    -383.363
  O      115.335    -364.490    -381.896
  O      115.669    -364.995    -384.392
  H      115.692    -365.386    -381.800
  H      111.923    -363.269    -382.568
  H      113.146    -363.857    -381.404
  H      111.845    -364.943    -381.959
  H      114.162    -362.418    -391.552
  H      114.505    -360.988    -390.609
  H      112.850    -361.439    -390.942

 3  4  5  6  7  8  9  10  11  12  23  26  30  31 0
 6-311+G(2d,p)
 ****
 33  35  36  37  38 0
 6-311+G(2d,p)
 ****
 1  2  13  14  15  16  17  18  19  20  21  22  24  25 0
 3-21G
 ****
 27  28  29  32  34  39  40  41  42  43  44  45  46  47  48  49 0
 3-21G
 ****


