%nproc=1
%NoSave
%Mem=1900MB
#P OB98/GEN NMR

erre ene a

0 1
  C      -64.313     270.591     221.971
  O      -65.694     270.268     221.799
  P      -66.564     271.123     220.759
  C      -68.719     271.301     222.163
  O      -68.112     270.768     220.989
  C      -69.986     270.519     222.518
  O      -69.677     269.226     223.075
  C      -70.845     271.215     223.562
  O      -71.535     272.316     223.000
  C      -71.723     270.071     224.035
  O      -72.833     269.868     223.140
  C      -70.761     268.864     223.958
  N      -70.270     268.437     225.261
  C      -71.024     267.454     225.909
  O      -72.061     267.030     225.397
  N      -70.590     266.992     227.131
  C      -69.508     267.473     227.654
  N      -69.127     266.976     228.860
  C      -68.692     268.517     227.008
  C      -69.129     268.956     225.827
  O      -66.103     271.079     219.339
  O      -66.459     272.612     221.354
  H      -72.446     269.559     222.299
  H      -66.519     273.250     220.617
  H      -67.790     268.883     227.483
  H      -68.592     269.726     225.282
  H      -71.260     268.007     223.492
  H      -72.143     270.259     225.028
  H      -70.208     271.560     224.391
  H      -70.565     270.377     221.597
  H      -69.706     266.269     229.287
  H      -68.964     272.355     222.002
  H      -68.270     267.251     229.323
  H      -67.991     271.268     222.980
  P      -71.731     273.618     223.917
  C      -74.323     273.692     223.885
  O      -73.113     274.310     223.495
  O      -70.623     274.631     223.351
  O      -71.552     273.386     225.383
  H      -70.276     275.179     224.079
  H      -75.136     274.425     223.805
  H      -74.274     273.335     224.919
  H      -74.542     272.854     223.220
  H      -63.880     269.932     222.694
  H      -64.223     271.602     222.310
  H      -63.802     270.481     221.037

 3  4  5  6  7  8  9  10  11  12  13  23  27  28  29  30  32 0
 6-311+G(2d,p)
 ****
 34  35 0
 6-311+G(2d,p)
 ****
 1  2  14  15  16  17  18  19  20  21  22  24  25  26 0
 3-21G
 ****
 31  33  36  37  38  39  40  41  42  43  44  45  46 0
 3-21G
 ****


