%nproc=1
%NoSave
%Mem=1900MB
#P OB98/GEN NMR

erre ene a

0 1
  C       24.659      80.706     -66.780
  O       24.718      81.432     -67.996
  P       23.761      80.958     -69.194
  C       25.818      80.223     -70.606
  O       24.580      79.851     -70.016
  C       26.863      79.136     -70.370
  O       27.107      78.958     -68.960
  C       26.457      77.760     -70.883
  O       26.675      77.617     -72.277
  C       27.408      76.867     -70.103
  O       28.706      76.865     -70.726
  C       27.468      77.572     -68.742
  N       26.284      73.325     -66.262
  C       27.385      73.613     -67.045
  N       28.262      72.605     -67.241
  N       27.607      74.782     -67.584
  C       26.639      75.692     -67.309
  C       25.505      75.525     -66.545
  C       25.267      74.222     -65.964
  O       24.286      73.891     -65.307
  N       24.768      76.677     -66.488
  C       25.451      77.542     -67.212
  N       26.571      76.978     -67.767
  O       23.753      82.217     -70.182
  O       22.385      80.564     -68.774
  H       28.974      77.802     -70.815
  H       23.001      82.152     -70.800
  H       26.155      72.406     -65.873
  H       25.167      78.573     -67.375
  H       28.478      77.562     -68.322
  H       27.075      75.826     -70.061
  H       28.116      71.665     -66.906
  H       25.423      77.520     -70.606
  H       29.046      72.770     -67.863
  H       27.801      79.460     -70.838
  H       26.160      81.161     -70.164
  H       25.673      80.382     -71.680
  P       25.372      77.432     -73.197
  C       26.762      75.712     -74.558
  O       25.546      76.002     -73.898
  O       25.616      78.476     -74.383
  O       24.078      77.668     -72.490
  H       24.767      78.763     -74.765
  H       26.814      74.633     -74.739
  H       27.622      76.006     -73.950
  H       26.797      76.231     -75.520
  H       25.345      81.131     -66.077
  H       24.921      79.684     -66.961
  H       23.667      80.755     -66.383

 3  4  5  6  7  8  9  10  11  12  23  26  30  31 0
 6-311+G(2d,p)
 ****
 33  35  36  37  38 0
 6-311+G(2d,p)
 ****
 1  2  13  14  15  16  17  18  19  20  21  22  24  25 0
 3-21G
 ****
 27  28  29  32  34  39  40  41  42  43  44  45  46  47  48  49 0
 3-21G
 ****


