%nproc=1
%NoSave
%Mem=1900MB
#P OB98/GEN NMR

erre ene a

0 1
  C      -28.520     232.744    -152.838
  O      -27.454     232.689    -153.765
  H      -29.362     232.174    -153.240
  H      -28.836     233.780    -152.682
  H      -28.213     232.299    -151.887
  P      -26.124     233.499    -153.378
  C      -23.852     233.204    -154.561
  O      -25.240     233.478    -154.720
  C      -23.356     232.290    -155.682
  O      -23.934     230.973    -155.491
  C      -23.748     232.772    -157.080
  O      -22.675     232.512    -157.985
  C      -24.939     231.900    -157.438
  O      -25.109     231.760    -158.845
  C      -24.601     230.599    -156.709
  N      -28.619     228.253    -158.799
  C      -27.523     228.821    -159.343
  N      -26.487     229.413    -158.708
  C      -26.642     229.337    -157.374
  C      -27.706     228.791    -156.678
  C      -28.740     228.232    -157.450
  N      -29.872     227.674    -156.906
  N      -27.520     228.945    -155.318
  C      -26.359     229.559    -155.195
  N      -25.799     229.832    -156.413
  O      -25.423     233.042    -152.144
  O      -26.660     235.006    -153.344
  H      -24.283     231.388    -159.219
  H      -27.242     235.195    -154.103
  H      -27.470     228.808    -160.429
  H      -25.892     229.839    -154.257
  H      -23.934     229.952    -157.291
  H      -25.857     232.343    -157.029
  H      -24.000     233.832    -157.101
  H      -22.269     232.178    -155.588
  H      -23.672     232.727    -153.590
  H      -30.559     227.282    -157.534
  H      -29.970     227.633    -155.901
  H      -23.316     234.158    -154.584
  P      -21.810     233.750    -158.519
  C      -19.353     233.810    -159.311
  O      -20.625     233.184    -159.445
  O      -21.401     234.753    -157.495
  O      -22.793     234.414    -159.601
  H      -22.698     235.387    -159.560
  H      -18.655     233.346    -159.976
  H      -19.009     233.706    -158.303
  H      -19.439     234.849    -159.553

 6  7  8  9  10  11  12  13  14  15  25  28  32  33  34  35 0
 6-311+G(2d,p)
 ****
 36  39  40 0
 6-311+G(2d,p)
 ****
 1  2  3  4  5  16  17  18  19  20  21  22  23  24 0
 3-21G
 ****
 26  27  29  30  31  37  38  41  42  43  44  45  46  47 0
 3-21G
 ****
 48 0
 3-21G
 ****


