%nproc=1
%NoSave
%Mem=1900MB
#P OB98/GEN NMR

erre ene a

0 1
  C       70.803      65.996    -112.614
  O       69.986      66.890    -113.360
  P       70.722      67.911    -114.359
  C       70.822      69.788    -112.566
  O       71.551      68.912    -113.419
  C       71.339      71.218    -112.697
  O       72.703      71.296    -112.240
  C       71.352      71.759    -114.119
  O       70.078      72.240    -114.522
  C       72.333      72.910    -113.981
  O       71.675      74.045    -113.389
  C       73.370      72.332    -113.011
  N       77.495      73.414    -115.830
  C       76.487      74.188    -115.380
  N       75.418      73.823    -114.641
  C       75.429      72.499    -114.410
  C       76.370      71.579    -114.839
  C       77.455      72.083    -115.576
  N       78.498      71.297    -116.012
  N       76.042      70.312    -114.408
  C       74.929      70.465    -113.721
  N       74.523      71.771    -113.684
  O       69.518      68.821    -114.895
  O       71.481      67.271    -115.470
  H       72.371      74.689    -113.158
  H       69.758      69.219    -115.754
  H       76.554      75.242    -115.633
  H       74.392      69.666    -113.229
  H       73.735      73.081    -112.298
  H       72.738      73.242    -114.943
  H       71.752      71.018    -114.824
  H       70.728      71.858    -112.048
  H       70.939      69.460    -111.531
  H       79.319      71.757    -116.368
  H       78.563      70.352    -115.649
  H       69.759      69.740    -112.832
  P       69.706      72.085    -116.077
  C       70.994      74.217    -116.818
  O       70.895      72.807    -116.871
  O       68.463      73.077    -116.251
  O       69.382      70.689    -116.491
  H       67.904      72.798    -117.000
  H       71.998      74.510    -117.133
  H       70.825      74.587    -115.804
  H       70.267      74.663    -117.501
  H       70.185      65.380    -111.996
  H       71.476      66.556    -111.999
  H       71.363      65.379    -113.286

 3  4  5  6  7  8  9  10  11  12  22  25  29  30  31  32 0
 6-311+G(2d,p)
 ****
 33  36  37 0
 6-311+G(2d,p)
 ****
 1  2  13  14  15  16  17  18  19  20  21  23  24  26 0
 3-21G
 ****
 27  28  34  35  38  39  40  41  42  43  44  45  46  47  48 0
 3-21G
 ****


