%nproc=1
%NoSave
%Mem=1900MB
#P OB98/GEN NMR

erre ene a

0 1
  C       -2.916      79.350      24.130
  O       -3.916      78.773      23.312
  H       -2.574      80.280      23.666
  H       -2.060      78.670      24.222
  H       -3.323      79.577      25.119
  P       -4.526      77.371      23.803
  C       -6.811      76.198      23.458
  O       -6.013      77.348      23.199
  C       -8.201      76.611      23.940
  O       -8.117      77.211      25.245
  C       -8.904      77.626      23.044
  O       -9.536      76.978      21.955
  C       -9.918      78.212      24.013
  O      -11.056      77.332      24.106
  C       -9.151      78.223      25.348
  N       -9.848      82.800      27.571
  C      -10.725      81.831      27.223
  N      -10.476      80.665      26.585
  C       -9.168      80.534      26.314
  C       -8.161      81.446      26.608
  C       -8.539      82.624      27.272
  N       -7.644      83.613      27.626
  N       -6.933      80.979      26.175
  C       -7.191      79.783      25.683
  N       -8.532      79.483      25.707
  O       -4.403      77.088      25.263
  O       -3.747      76.348      22.846
  H      -11.546      77.406      23.265
  H       -3.681      76.708      21.944
  H      -11.761      82.017      27.484
  H       -6.445      79.086      25.313
  H       -9.802      77.942      26.192
  H      -10.297      79.186      23.692
  H       -8.220      78.420      22.717
  H       -8.806      75.698      24.038
  H       -6.327      75.565      24.213
  H       -8.029      84.495      27.919
  H       -6.700      83.534      27.286
  H       -6.883      75.630      22.524
  P       -9.972      77.794      20.643
  C      -10.102      77.230      18.135
  O       -9.646      76.808      19.417
  O       -9.390      79.162      20.543
  O      -11.569      77.793      20.688
  H      -11.918      78.483      20.088
  H       -9.830      76.500      17.402
  H       -9.652      78.169      17.888
  H      -11.166      77.338      18.153

 6  7  8  9  10  11  12  13  14  15  25  28  32  33  34  35 0
 6-311+G(2d,p)
 ****
 36  39  40 0
 6-311+G(2d,p)
 ****
 1  2  3  4  5  16  17  18  19  20  21  22  23  24 0
 3-21G
 ****
 26  27  29  30  31  37  38  41  42  43  44  45  46  47 0
 3-21G
 ****
 48 0
 3-21G
 ****


