%nproc=1
%NoSave
%Mem=1900MB
#P OB98/GEN NMR

erre ene a

0 1
  C      160.014      97.940      49.916
  O      160.617      96.784      50.469
  P      160.286      95.333      49.887
  C      158.439      95.101      51.648
  O      158.762      94.992      50.269
  C      156.954      94.842      51.896
  O      156.173      95.799      51.129
  C      156.474      93.438      51.499
  O      155.447      93.076      52.428
  C      155.862      93.668      50.124
  O      154.946      92.650      49.751
  C      155.232      95.040      50.336
  N      151.876      97.900      47.747
  C      151.811      97.320      48.967
  N      152.738      96.552      49.575
  C      153.824      96.407      48.795
  C      154.018      96.912      47.520
  C      152.988      97.714      46.994
  N      153.050      98.341      45.773
  N      155.240      96.495      47.019
  C      155.765      95.756      47.975
  N      154.974      95.727      49.092
  O      161.267      94.263      50.241
  O      160.221      95.555      48.301
  H      154.297      92.539      50.472
  H      161.020      95.178      47.881
  H      150.902      97.504      49.528
  H      156.704      95.223      47.913
  H      154.290      94.982      50.893
  H      156.656      93.701      49.371
  H      157.268      92.683      51.485
  H      156.747      95.033      52.957
  H      158.688      96.115      51.975
  H      152.313      98.994      45.553
  H      153.955      98.434      45.316
  H      159.046      94.395      52.227
  P      154.950      91.553      52.519
  C      152.504      92.258      52.233
  O      153.566      91.475      51.717
  O      154.928      90.972      53.894
  O      155.975      90.774      51.560
  H      155.935      89.816      51.762
  H      152.041      91.728      53.069
  H      151.758      92.408      51.444
  H      152.863      93.231      52.574
  H      160.360      98.807      50.438
  H      158.951      97.868      50.011
  H      160.275      98.018      48.881

 3  4  5  6  7  8  9  10  11  12  22  25  29  30  31  32 0
 6-311+G(2d,p)
 ****
 33  36  37 0
 6-311+G(2d,p)
 ****
 1  2  13  14  15  16  17  18  19  20  21  23  24  26 0
 3-21G
 ****
 27  28  34  35  38  39  40  41  42  43  44  45  46  47  48 0
 3-21G
 ****


