%nproc=1
%NoSave
%Mem=1900MB
#P OB98/GEN NMR

erre ene a

0 1
  C     -146.979     249.114    -101.524
  O     -146.656     250.449    -101.921
  P     -147.885     251.479    -102.026
  C     -149.892     251.853    -103.627
  O     -148.657     251.189    -103.401
  C     -150.245     251.854    -105.116
  O     -149.385     252.719    -105.883
  C     -150.136     250.477    -105.759
  O     -151.286     249.708    -105.458
  C     -150.026     250.840    -107.239
  O     -151.328     251.052    -107.824
  C     -149.229     252.150    -107.211
  N     -145.830     251.198    -110.851
  C     -147.209     251.104    -110.882
  N     -147.762     250.724    -112.052
  N     -147.974     251.360    -109.851
  C     -147.286     251.730    -108.747
  C     -145.925     251.886    -108.607
  C     -145.087     251.593    -109.750
  O     -143.866     251.690    -109.782
  N     -145.603     252.337    -107.349
  C     -146.752     252.328    -106.700
  N     -147.815     252.028    -107.519
  O     -147.168     252.890    -102.269
  O     -148.744     251.503    -100.801
  H     -151.218     251.433    -108.710
  H     -147.262     253.452    -101.475
  H     -145.286     250.984    -111.671
  H     -146.871     252.549    -105.651
  H     -149.633     252.880    -107.923
  H     -149.557     250.037    -107.818
  H     -147.232     250.514    -112.885
  H     -149.220     249.977    -105.425
  H     -148.774     250.650    -112.095
  H     -151.272     252.228    -105.212
  H     -149.834     252.883    -103.260
  H     -150.671     251.357    -103.041
  P     -151.102     248.433    -104.503
  C     -149.981     246.100    -104.702
  O     -150.298     247.325    -105.329
  O     -152.585     247.837    -104.403
  O     -150.554     248.747    -103.147
  H     -152.779     247.598    -103.474
  H     -149.936     245.315    -105.460
  H     -150.730     245.827    -103.951
  H     -149.004     246.184    -104.218
  H     -146.086     248.526    -101.490
  H     -147.661     248.687    -102.230
  H     -147.432     249.130    -100.555

 3  4  5  6  7  8  9  10  11  12  23  26  30  31 0
 6-311+G(2d,p)
 ****
 33  35  36  37  38 0
 6-311+G(2d,p)
 ****
 1  2  13  14  15  16  17  18  19  20  21  22  24  25 0
 3-21G
 ****
 27  28  29  32  34  39  40  41  42  43  44  45  46  47  48  49 0
 3-21G
 ****


