%nproc=1
%NoSave
%Mem=1900MB
#P OB98/GEN NMR

erre ene a

0 1
  C       59.057    -349.250    -273.457
  O       58.311    -349.170    -272.260
  H       59.210    -348.241    -273.845
  H       58.506    -349.832    -274.201
  H       60.033    -349.710    -273.273
  P       58.167    -350.511    -271.393
  C       59.617    -349.793    -269.358
  O       58.316    -350.077    -269.853
  C       59.542    -349.446    -267.870
  O       60.890    -349.492    -267.317
  C       58.974    -348.051    -267.581
  O       58.206    -348.115    -266.375
  C       60.221    -347.219    -267.332
  O       59.988    -346.052    -266.552
  C       61.117    -348.245    -266.628
  N       62.530    -347.873    -266.664
  C       62.900    -346.698    -266.018
  O       62.142    -345.995    -265.350
  N       64.215    -346.333    -266.164
  C       65.160    -346.998    -266.887
  O       66.317    -346.608    -266.993
  C       64.708    -348.227    -267.554
  C       63.432    -348.601    -267.415
  O       59.534    -351.284    -271.695
  O       56.962    -351.342    -271.688
  H       59.435    -351.863    -272.473
  H       59.591    -345.382    -267.142
  H       64.497    -345.483    -265.703
  H       65.428    -348.774    -268.147
  H       63.060    -349.492    -267.912
  H       60.799    -348.380    -265.591
  H       60.658    -346.908    -268.288
  H       58.364    -347.639    -268.391
  H       58.960    -350.221    -267.357
  H       60.035    -348.940    -269.900
  H       60.262    -350.665    -269.514
  P       56.696    -347.574    -266.437
  C       55.589    -349.704    -267.489
  O       55.767    -348.880    -266.348
  O       56.592    -347.116    -267.965
  O       56.414    -346.505    -265.434
  H       57.099    -347.689    -268.569
  H       54.943    -350.520    -267.242
  H       56.538    -350.083    -267.807
  H       55.152    -349.130    -268.279

 6  7  8  9  10  11  12  13  14  15  16  27  31  32  33  34  35 0
 6-311+G(2d,p)
 ****
 36  37 0
 6-311+G(2d,p)
 ****
 1  2  3  4  5  17  18  19  20  21  22  23  24  25 0
 3-21G
 ****
 26  28  29  30  38  39  40  41  42  43  44  45 0
 3-21G
 ****


