%nproc=1
%NoSave
%Mem=1900MB
#P OB98/GEN NMR

erre ene a

0 1
  C     -292.036     701.411     711.788
  O     -291.785     700.903     710.488
  P     -290.288     700.433     710.142
  C     -289.366     702.886     709.920
  O     -289.630     701.631     709.314
  C     -287.963     703.370     709.549
  O     -286.977     702.406     710.001
  C     -287.727     703.526     708.053
  O     -288.306     704.711     707.545
  C     -286.197     703.496     707.998
  O     -285.657     704.781     708.356
  C     -285.860     702.463     709.089
  N     -285.547     701.139     708.554
  C     -284.199     700.793     708.516
  O     -283.300     701.537     708.914
  N     -283.914     699.556     707.989
  C     -284.814     698.693     707.453
  O     -284.497     697.609     706.963
  C     -286.219     699.117     707.485
  C     -286.523     700.306     708.028
  O     -290.588     699.290     709.064
  O     -289.531     699.971     711.341
  H     -291.425     699.453     708.588
  H     -285.859     704.909     709.302
  H     -282.944     699.273     707.974
  H     -286.963     698.455     707.064
  H     -287.544     700.649     708.045
  H     -285.001     702.806     709.682
  H     -285.820     703.241     707.001
  H     -288.122     702.659     707.519
  H     -287.777     704.310     710.074
  H     -289.435     702.775     711.012
  H     -290.126     703.604     709.589
  P     -289.480     704.529     706.454
  C     -288.182     702.914     704.855
  O     -288.750     704.193     705.067
  O     -289.979     706.030     706.281
  O     -290.538     703.559     706.880
  H     -289.254     706.675     706.250
  H     -288.060     702.756     703.780
  H     -288.827     702.120     705.259
  H     -287.200     702.860     705.330
  H     -293.068     701.682     711.872
  H     -291.426     702.274     711.958
  H     -291.804     700.661     712.515

 3  4  5  6  7  8  9  10  11  12  13  24  28  29  30  31  32 0
 6-311+G(2d,p)
 ****
 33  34 0
 6-311+G(2d,p)
 ****
 1  2  14  15  16  17  18  19  20  21  22  23  25  26  27 0
 3-21G
 ****
 35  36  37  38  39  40  41  42  43  44  45 0
 3-21G
 ****


