%nproc=1
%NoSave
%Mem=1900MB
#P OB98/GEN NMR

erre ene a

0 1
  C      -84.316      52.739     -25.891
  O      -84.687      51.369     -25.904
  P      -85.772      50.814     -26.951
  C      -88.193      51.512     -27.534
  O      -87.127      51.593     -26.595
  C      -89.525      51.395     -26.798
  O      -89.538      50.188     -26.010
  C      -89.810      52.531     -25.823
  O      -90.217      53.704     -26.509
  C      -90.870      51.889     -24.935
  O      -92.154      51.930     -25.579
  C      -90.373      50.430     -24.852
  N      -89.651      50.145     -23.615
  C      -90.429      49.996     -22.461
  O      -91.655      50.092     -22.503
  N      -89.797      49.702     -21.276
  C      -88.504      49.591     -21.240
  N      -87.939      49.233     -20.053
  C      -87.644      49.797     -22.419
  C      -88.278      50.062     -23.562
  O      -85.899      49.328     -26.993
  O      -85.355      51.467     -28.348
  H      -92.406      52.874     -25.640
  H      -84.700      50.927     -28.857
  H      -86.570      49.707     -22.337
  H      -87.719      50.205     -24.479
  H      -91.218      49.736     -24.936
  H      -90.970      52.371     -23.955
  H      -88.917      52.755     -25.225
  H      -90.326      51.325     -27.547
  H      -88.573      48.933     -19.322
  H      -88.045      50.620     -28.153
  H      -87.001      48.853     -20.009
  H      -88.173      52.397     -28.179
  P      -89.754      55.116     -25.903
  C      -89.876      56.065     -23.491
  O      -90.475      55.236     -24.472
  O      -90.513      56.179     -26.826
  O      -88.275      55.329     -25.893
  H      -89.902      56.552     -27.489
  H      -90.599      56.224     -22.686
  H      -89.602      57.033     -23.917
  H      -88.992      55.572     -23.077
  H      -83.586      52.904     -25.126
  H      -85.179      53.340     -25.696
  H      -83.903      53.006     -26.841

 3  4  5  6  7  8  9  10  11  12  13  23  27  28  29  30  32 0
 6-311+G(2d,p)
 ****
 34  35 0
 6-311+G(2d,p)
 ****
 1  2  14  15  16  17  18  19  20  21  22  24  25  26 0
 3-21G
 ****
 31  33  36  37  38  39  40  41  42  43  44  45  46 0
 3-21G
 ****


