%nproc=1
%NoSave
%Mem=1900MB
#P OB98/GEN NMR

erre ene a

0 1
  C      307.171    -809.682     143.789
  O      308.535    -809.552     143.420
  H      307.107    -810.324     144.674
  H      306.591    -810.144     142.988
  H      306.749    -808.704     144.035
  P      308.877    -808.779     142.054
  C      308.527    -809.285     139.539
  O      308.325    -809.718     140.882
  C      308.308    -810.445     138.571
  O      306.935    -810.889     138.626
  C      308.568    -810.073     137.125
  O      309.952    -809.999     136.853
  C      307.823    -811.181     136.403
  O      308.592    -812.390     136.365
  C      306.573    -811.353     137.305
  N      305.414    -810.628     136.805
  C      304.679    -811.270     135.792
  O      305.029    -812.383     135.378
  N      303.588    -810.623     135.262
  C      303.248    -809.457     135.710
  N      302.166    -808.861     135.134
  C      303.985    -808.750     136.779
  C      305.046    -809.386     137.272
  O      310.295    -808.327     141.868
  O      307.846    -807.553     142.046
  H      308.082    -813.011     135.807
  H      308.235    -806.782     142.493
  H      303.664    -807.782     137.119
  H      305.636    -808.938     138.065
  H      306.309    -812.416     137.403
  H      307.588    -810.908     135.375
  H      308.071    -809.125     136.881
  H      308.948    -811.284     138.887
  H      301.692    -809.381     134.397
  H      309.562    -808.925     139.472
  H      301.747    -808.002     135.459
  H      307.853    -808.460     139.297
  P      310.516    -809.025     135.707
  C      309.716    -808.742     133.273
  O      310.013    -809.666     134.329
  O      311.973    -808.723     135.780
  O      309.592    -807.719     135.857
  H      309.837    -807.190     136.651
  H      309.392    -809.281     132.408
  H      310.594    -808.179     133.034
  H      308.941    -808.076     133.589

 6  7  8  9  10  11  12  13  14  15  16  26  30  31  32  33  35 0
 6-311+G(2d,p)
 ****
 37  38 0
 6-311+G(2d,p)
 ****
 1  2  3  4  5  17  18  19  20  21  22  23  24  25 0
 3-21G
 ****
 27  28  29  34  36  39  40  41  42  43  44  45  46 0
 3-21G
 ****


