%nproc=1
%NoSave
%Mem=1900MB
#P OB98/GEN NMR

erre ene a

0 1
  C       86.177    -427.832    -245.900
  O       87.310    -427.271    -246.532
  H       85.280    -427.333    -246.275
  H       86.238    -427.683    -244.820
  H       86.106    -428.899    -246.122
  P       88.731    -427.939    -246.211
  C       89.446    -426.142    -244.466
  O       89.691    -426.744    -245.726
  C       90.723    -426.165    -243.625
  O       91.118    -427.548    -243.421
  C       91.900    -425.444    -244.289
  O       92.674    -424.785    -243.281
  C       92.707    -426.579    -244.894
  O       94.076    -426.262    -245.105
  C       92.490    -427.680    -243.848
  N       92.741    -429.017    -244.380
  C       93.727    -429.778    -243.762
  O       94.349    -429.436    -242.758
  N       93.996    -430.989    -244.351
  C       93.407    -431.486    -245.474
  O       93.707    -432.570    -245.965
  C       92.381    -430.634    -246.089
  C       92.099    -429.456    -245.524
  O       89.304    -428.302    -247.659
  O       88.700    -429.115    -245.294
  H       89.036    -429.205    -247.916
  H       94.134    -425.696    -245.904
  H       94.709    -431.553    -243.912
  H       91.896    -430.993    -246.987
  H       91.355    -428.798    -245.956
  H       93.126    -427.506    -242.972
  H       92.276    -426.872    -245.858
  H       91.586    -424.722    -245.044
  H       90.506    -425.741    -242.636
  H       88.662    -426.702    -243.947
  H       89.109    -425.109    -244.616
  P       92.395    -423.221    -243.044
  C       94.807    -422.313    -243.476
  O       93.787    -422.599    -242.537
  O       91.477    -423.259    -241.736
  O       91.784    -422.550    -244.231
  H       91.730    -423.951    -241.102
  H       95.657    -421.908    -242.967
  H       94.446    -421.602    -244.190
  H       95.090    -423.213    -243.981

 6  7  8  9  10  11  12  13  14  15  16  27  31  32  33  34  35 0
 6-311+G(2d,p)
 ****
 36  37 0
 6-311+G(2d,p)
 ****
 1  2  3  4  5  17  18  19  20  21  22  23  24  25 0
 3-21G
 ****
 26  28  29  30  38  39  40  41  42  43  44  45 0
 3-21G
 ****


