%nproc=1
%NoSave
%Mem=1900MB
#P OB98/GEN NMR

erre ene a

0 1
  C      446.458    -886.486       4.416
  O      445.906    -887.101       3.249
  P      446.592    -887.079       1.808
  C      446.781    -889.624       1.219
  O      447.426    -888.431       1.633
  C      446.469    -890.581       2.388
  O      445.457    -889.980       3.242
  C      445.876    -891.886       1.867
  O      446.730    -892.917       1.410
  C      444.902    -892.324       2.953
  O      445.492    -893.231       3.883
  C      444.535    -891.008       3.650
  N      439.817    -890.246       5.486
  C      440.926    -890.762       6.121
  N      440.759    -891.175       7.392
  N      442.101    -890.882       5.558
  C      442.113    -890.512       4.253
  C      441.074    -889.994       3.509
  C      439.795    -889.820       4.161
  O      438.786    -889.353       3.650
  N      441.457    -889.754       2.214
  C      442.714    -890.137       2.171
  N      443.164    -890.599       3.384
  O      447.276    -885.801       1.442
  O      445.345    -887.268       0.801
  H      444.822    -893.466       4.552
  H      445.563    -886.766      -0.009
  H      438.947    -890.156       5.974
  H      443.346    -890.105       1.291
  H      444.631    -891.102       4.739
  H      444.042    -892.844       2.511
  H      439.859    -891.231       7.846
  H      445.249    -891.633       1.003
  H      441.507    -891.760       7.788
  H      447.353    -890.722       3.021
  H      447.444    -890.110       0.499
  H      445.864    -889.390       0.681
  P      447.038    -893.281      -0.118
  C      449.575    -893.600       0.095
  O      448.530    -892.805      -0.448
  O      446.146    -892.248      -0.953
  O      446.722    -894.697      -0.504
  H      446.053    -892.554      -1.882
  H      450.505    -893.030       0.070
  H      449.705    -894.504      -0.506
  H      449.357    -893.884       1.139
  H      445.804    -886.647       5.247
  H      446.569    -885.435       4.247
  H      447.415    -886.916       4.627

 3  4  5  6  7  8  9  10  11  12  23  26  30  31 0
 6-311+G(2d,p)
 ****
 33  35  36  37  38 0
 6-311+G(2d,p)
 ****
 1  2  13  14  15  16  17  18  19  20  21  22  24  25 0
 3-21G
 ****
 27  28  29  32  34  39  40  41  42  43  44  45  46  47  48  49 0
 3-21G
 ****


