%nproc=1
%NoSave
%Mem=1900MB
#P OB98/GEN NMR

erre ene a

0 1
  C     -406.889      11.473    -464.753
  O     -408.110      10.847    -464.339
  P     -409.126      11.520    -463.296
  C     -411.422      11.165    -464.416
  O     -410.392      12.095    -464.090
  C     -411.772      11.212    -465.910
  O     -410.639      10.830    -466.709
  C     -412.900      10.273    -466.330
  O     -414.161      10.787    -465.942
  C     -412.676      10.202    -467.835
  O     -413.255      11.335    -468.502
  C     -411.133      10.250    -467.932
  N     -410.556       8.932    -468.169
  C     -410.469       8.520    -469.501
  O     -410.923       9.229    -470.406
  N     -409.888       7.305    -469.781
  C     -409.504       6.539    -468.805
  N     -408.935       5.345    -469.140
  C     -409.659       6.896    -467.388
  C     -410.185       8.098    -467.141
  O     -408.485      12.506    -462.377
  O     -409.734      10.294    -462.462
  H     -412.999      11.266    -469.440
  H     -409.949      10.604    -461.560
  H     -409.350       6.217    -466.603
  H     -410.326       8.444    -466.127
  H     -410.817      10.920    -468.738
  H     -413.110       9.307    -468.283
  H     -412.740       9.282    -465.889
  H     -412.026      12.251    -466.161
  H     -408.833       5.137    -470.128
  H     -412.314      11.421    -463.830
  H     -408.593       4.682    -468.461
  H     -411.090      10.160    -464.136
  P     -414.788      10.375    -464.529
  C     -415.241      12.451    -463.087
  O     -414.301      11.449    -463.445
  O     -414.601       8.946    -464.130
  O     -416.346      10.723    -464.690
  H     -416.870      10.095    -464.153
  H     -414.967      12.852    -462.106
  H     -416.254      12.041    -463.038
  H     -415.207      13.259    -463.824
  H     -406.381      10.838    -465.449
  H     -406.265      11.638    -463.899
  H     -407.109      12.410    -465.220

 3  4  5  6  7  8  9  10  11  12  13  23  27  28  29  30  32 0
 6-311+G(2d,p)
 ****
 34  35 0
 6-311+G(2d,p)
 ****
 1  2  14  15  16  17  18  19  20  21  22  24  25  26 0
 3-21G
 ****
 31  33  36  37  38  39  40  41  42  43  44  45  46 0
 3-21G
 ****


