%nproc=1
%NoSave
%Mem=1900MB
#P OB98/GEN NMR

erre ene a

0 1
  C      -62.334      95.036     876.906
  O      -63.609      94.467     877.114
  H      -62.228      95.918     877.555
  H      -62.213      95.360     875.866
  H      -61.545      94.322     877.163
  P      -64.097      93.326     876.096
  C      -63.711      91.294     877.652
  O      -64.678      92.145     877.019
  C      -64.372      90.390     878.703
  O      -64.877      91.191     879.802
  C      -65.597      89.630     878.173
  O      -65.263      88.617     877.237
  C      -66.324      89.263     879.458
  O      -65.856      88.053     880.061
  C      -65.985      90.462     880.369
  N      -67.147      91.328     880.599
  C      -68.198      90.774     881.308
  O      -68.191      89.621     881.740
  N      -69.287      91.586     881.502
  C      -69.446      92.846     881.002
  O      -70.461      93.505     881.173
  C      -68.296      93.374     880.221
  C      -67.224      92.607     880.053
  O      -63.080      92.868     875.092
  O      -65.415      93.947     875.443
  H      -66.469      87.846     880.796
  H      -65.662      93.468     874.616
  H      -70.059      91.202     882.036
  H      -68.392      94.372     879.813
  H      -66.382      92.969     879.484
  H      -65.637      90.108     881.358
  H      -67.395      89.132     879.284
  H      -66.234      90.340     877.641
  H      -63.615      89.704     879.100
  H      -62.971      91.937     878.144
  H      -63.205      90.687     876.898
  P      -65.937      88.543     875.787
  C      -64.283      89.927     874.308
  O      -64.754      88.626     874.688
  O      -67.172      89.345     875.567
  O      -66.355      86.984     875.711
  H      -67.177      86.917     875.199
  H      -63.506      89.826     873.579
  H      -63.900      90.433     875.169
  H      -65.091      90.491     873.892

 6  7  8  9  10  11  12  13  14  15  16  26  31  32  33  34  35 0
 6-311+G(2d,p)
 ****
 36  37 0
 6-311+G(2d,p)
 ****
 1  2  3  4  5  17  18  19  20  21  22  23  24  25 0
 3-21G
 ****
 27  28  29  30  38  39  40  41  42  43  44  45 0
 3-21G
 ****


