%nproc=1
%NoSave
%Mem=1900MB
#P OB98/GEN NMR

erre ene a

0 1
  C       42.012     469.882    -440.806
  O       40.962     468.939    -440.726
  H       42.949     469.385    -440.542
  H       41.838     470.701    -440.102
  H       42.092     470.274    -441.822
  P       39.491     469.467    -441.094
  C       39.860     469.703    -443.660
  O       39.653     470.362    -442.417
  C       38.903     470.263    -444.706
  O       37.544     469.883    -444.383
  C       38.890     471.785    -444.775
  O       39.999     472.304    -445.490
  C       37.556     472.037    -445.463
  O       37.666     471.915    -446.887
  C       36.674     470.918    -444.896
  N       32.654     473.905    -443.895
  C       33.258     473.560    -445.054
  N       34.319     472.749    -445.240
  C       34.741     472.247    -444.065
  C       34.227     472.503    -442.808
  C       33.126     473.376    -442.742
  N       32.525     473.746    -441.557
  N       34.951     471.834    -441.839
  C       35.881     471.181    -442.503
  N       35.792     471.396    -443.849
  O       39.193     470.537    -439.942
  O       38.438     468.414    -441.164
  H       37.997     471.012    -447.060
  H       38.624     470.131    -439.261
  H       32.838     474.005    -445.953
  H       36.642     470.551    -442.055
  H       36.041     470.458    -445.668
  H       37.188     473.041    -445.243
  H       38.853     472.208    -443.765
  H       39.155     469.829    -445.680
  H       39.673     468.630    -443.536
  H       40.900     469.847    -443.970
  H       31.788     474.428    -441.584
  H       32.941     473.445    -440.685
  P       40.381     473.841    -445.261
  C       41.885     473.210    -443.223
  O       40.817     474.000    -443.724
  O       38.976     474.603    -445.339
  O       41.366     474.393    -446.240
  H       39.095     475.480    -445.756
  H       42.044     473.439    -442.190
  H       42.776     473.422    -443.776
  H       41.640     472.173    -443.325

 6  7  8  9  10  11  12  13  14  15  25  28  32  33  34  35 0
 6-311+G(2d,p)
 ****
 36  37  40 0
 6-311+G(2d,p)
 ****
 1  2  3  4  5  16  17  18  19  20  21  22  23  24 0
 3-21G
 ****
 26  27  29  30  31  38  39 41  42  43  44  45  46  47  48 0
 3-21G
 ****


