%nproc=1
%NoSave
%Mem=1900MB
#P OB98/GEN NMR

erre ene a

0 1
  C      440.358    -226.040    -379.581
  O      440.656    -225.415    -380.835
  P      439.616    -225.609    -382.042
  C      438.364    -223.404    -381.464
  O      439.031    -224.173    -382.454
  C      437.354    -222.453    -382.114
  O      436.591    -221.724    -381.135
  C      437.998    -221.387    -382.993
  O      438.306    -221.892    -384.289
  C      436.881    -220.361    -383.078
  O      435.905    -220.777    -384.057
  C      436.276    -220.421    -381.674
  N      435.334    -215.901    -379.449
  C      434.626    -216.633    -380.335
  N      434.948    -217.820    -380.893
  C      436.138    -218.248    -380.443
  C      436.976    -217.605    -379.543
  C      436.531    -216.374    -379.034
  N      437.257    -215.631    -378.131
  N      438.123    -218.345    -379.324
  C      437.973    -219.422    -380.072
  N      436.795    -219.404    -380.771
  O      438.373    -226.324    -381.332
  O      440.144    -226.431    -383.169
  H      435.602    -221.666    -383.799
  H      437.951    -226.946    -381.950
  H      433.669    -216.219    -380.634
  H      438.682    -220.233    -380.135
  H      435.183    -220.319    -381.679
  H      437.238    -219.372    -383.390
  H      438.875    -220.951    -382.501
  H      436.660    -223.054    -382.720
  H      439.089    -222.835    -380.873
  H      436.862    -214.773    -377.789
  H      438.143    -215.993    -377.799
  H      437.860    -224.082    -380.762
  P      439.764    -221.573    -384.872
  C      441.338    -223.481    -384.086
  O      440.466    -222.994    -385.088
  O      440.526    -220.943    -383.612
  O      439.767    -220.650    -386.046
  H      441.197    -220.300    -383.913
  H      441.478    -224.555    -384.238
  H      440.917    -223.325    -383.087
  H      442.307    -222.983    -384.163
  H      441.137    -225.823    -378.880
  H      440.287    -227.099    -379.718
  H      439.428    -225.666    -379.208

 3  4  5  6  7  8  9  10  11  12  22  25  29  30  31  32 0
 6-311+G(2d,p)
 ****
 33  36  37 0
 6-311+G(2d,p)
 ****
 1  2  13  14  15  16  17  18  19  20  21  23  24  26 0
 3-21G
 ****
 27  28  34  35  38  39  40  41  42  43  44  45  46  47  48 0
 3-21G
 ****


