%nproc=1
%NoSave
%Mem=1900MB
#P OB98/GEN NMR

erre ene a

0 1
  C      183.054    -257.515    -433.062
  O      182.065    -256.612    -432.606
  H      182.782    -257.859    -434.065
  H      183.105    -258.379    -432.393
  H      184.029    -257.022    -433.109
  P      182.394    -255.814    -431.255
  C      182.013    -257.729    -429.502
  O      182.934    -256.890    -430.185
  C      181.471    -257.014    -428.266
  O      180.551    -257.859    -427.548
  C      182.531    -256.670    -427.227
  O      183.361    -255.602    -427.632
  C      181.652    -256.333    -426.033
  O      181.198    -254.975    -426.071
  C      180.464    -257.313    -426.207
  N      180.464    -258.348    -425.189
  C      179.233    -258.560    -424.554
  O      178.245    -257.902    -424.889
  N      179.165    -259.480    -423.539
  C      180.239    -260.114    -423.169
  N      180.110    -260.990    -422.132
  C      181.553    -259.917    -423.812
  C      181.597    -259.030    -424.806
  O      180.937    -255.450    -430.704
  O      183.294    -254.638    -431.428
  H      180.546    -254.881    -425.342
  H      180.327    -256.205    -430.686
  H      182.416    -260.478    -423.476
  H      182.520    -258.825    -425.330
  H      179.508    -256.773    -426.151
  H      182.188    -256.460    -425.087
  H      183.118    -257.564    -426.980
  H      180.934    -256.115    -428.599
  H      179.200    -261.048    -421.689
  H      182.490    -258.671    -429.215
  H      180.887    -261.477    -421.714
  H      181.202    -257.965    -430.196
  P      184.874    -255.485    -427.118
  C      184.507    -253.088    -426.240
  O      184.869    -254.424    -425.906
  O      185.889    -255.204    -428.172
  O      185.104    -256.869    -426.342
  H      184.496    -257.030    -425.595
  H      184.539    -252.479    -425.361
  H      183.517    -253.077    -426.645
  H      185.193    -252.703    -426.965

 6  7  8  9  10  11  12  13  14  15  16  26  30  31  32  33  35 0
 6-311+G(2d,p)
 ****
 37  38 0
 6-311+G(2d,p)
 ****
 1  2  3  4  5  17  18  19  20  21  22  23  24  25 0
 3-21G
 ****
 27  28  29  34  36  39  40  41  42  43  44  45  46 0
 3-21G
 ****


