%nproc=1
%NoSave
%Mem=1900MB
#P OB98/GEN NMR

erre ene a

0 1
  C      -76.097    -155.110     -35.353
  O      -76.540    -156.051     -36.312
  H      -75.964    -154.144     -35.846
  H      -75.140    -155.426     -34.931
  H      -76.840    -155.002     -34.560
  P      -76.821    -157.538     -35.777
  C      -74.990    -158.095     -37.520
  O      -76.217    -158.487     -36.920
  C      -74.574    -159.100     -38.590
  O      -73.469    -158.593     -39.359
  C      -74.115    -160.446     -38.044
  O      -75.225    -161.268     -37.725
  C      -73.336    -160.985     -39.234
  O      -74.250    -161.525     -40.208
  C      -72.662    -159.720     -39.794
  N      -67.719    -160.617     -40.847
  C      -68.855    -161.111     -41.384
  N      -70.132    -160.861     -41.027
  C      -70.179    -160.000     -39.997
  C      -69.105    -159.413     -39.347
  C      -67.824    -159.745     -39.818
  N      -66.667    -159.230     -39.274
  N      -69.539    -158.584     -38.334
  C      -70.854    -158.628     -38.407
  N      -71.291    -159.499     -39.374
  O      -78.220    -157.819     -35.352
  O      -75.721    -157.657     -34.618
  H      -74.911    -160.835     -40.405
  H      -74.893    -157.224     -34.888
  H      -68.721    -161.798     -42.215
  H      -71.531    -158.041     -37.799
  H      -72.656    -159.715     -40.890
  H      -72.656    -161.792     -38.955
  H      -73.433    -160.323     -37.196
  H      -75.419    -159.225     -39.279
  H      -74.204    -158.012     -36.761
  H      -65.794    -159.649     -39.555
  H      -66.743    -158.681     -38.430
  H      -75.144    -157.109     -37.968
  P      -75.205    -162.200     -36.421
  C      -72.876    -163.249     -36.708
  O      -74.281    -163.463     -36.775
  O      -76.546    -162.546     -35.873
  O      -74.322    -161.391     -35.363
  H      -74.691    -161.491     -34.465
  H      -72.365    -164.154     -36.962
  H      -72.607    -162.954     -35.715
  H      -72.599    -162.478     -37.396

 6  7  8  9  10  11  12  13  14  15  25  28  32  33  34  35 0
 6-311+G(2d,p)
 ****
 36  39  40 0
 6-311+G(2d,p)
 ****
 1  2  3  4  5  16  17  18  19  20  21  22  23  24 0
 3-21G
 ****
 26  27  29  30  31  37  38  41  42  43  44  45  46  47 0
 3-21G
 ****
 48 0
 3-21G
 ****


