%nproc=1
%NoSave
%Mem=1900MB
#P OB98/GEN NMR

erre ene a

0 1
  C     1229.532    -143.994    1748.225
  O     1230.378    -144.113    1749.365
  P     1230.761    -142.744    1750.149
  C     1232.940    -142.246    1748.785
  O     1232.339    -142.594    1750.053
  C     1234.445    -142.345    1748.872
  O     1234.966    -141.295    1749.734
  C     1234.984    -143.654    1749.451
  O     1235.016    -144.686    1748.480
  C     1236.393    -143.248    1749.833
  O     1237.255    -143.252    1748.688
  C     1236.213    -141.824    1750.358
  N     1238.706    -142.138    1754.743
  C     1239.197    -142.087    1753.435
  N     1240.529    -142.133    1753.281
  N     1238.446    -141.920    1752.376
  C     1237.089    -141.873    1752.697
  C     1236.502    -141.910    1753.939
  C     1237.371    -142.088    1755.089
  O     1236.988    -142.220    1756.250
  N     1235.151    -141.800    1753.839
  C     1234.908    -141.687    1752.550
  N     1236.067    -141.734    1751.795
  O     1230.507    -143.112    1751.692
  O     1229.966    -141.557    1749.727
  H     1236.792    -142.784    1747.971
  H     1230.431    -142.322    1752.216
  H     1239.333    -142.258    1755.519
  H     1233.941    -141.565    1752.095
  H     1237.016    -141.149    1750.053
  H     1236.855    -143.935    1750.576
  H     1241.165    -142.321    1754.062
  H     1234.432    -143.947    1750.343
  H     1240.935    -142.167    1752.360
  H     1234.868    -142.209    1747.854
  H     1232.623    -141.236    1748.518
  H     1232.551    -142.919    1748.027
  P     1234.354    -146.082    1748.905
  C     1236.429    -146.731    1750.375
  O     1235.585    -147.055    1749.270
  O     1233.816    -146.690    1747.496
  O     1233.262    -145.969    1749.933
  H     1233.055    -147.295    1747.657
  H     1237.008    -147.597    1750.638
  H     1235.811    -146.444    1751.268
  H     1237.094    -145.906    1750.086
  H     1229.360    -144.963    1747.806
  H     1230.002    -143.368    1747.495
  H     1228.598    -143.561    1748.517

 3  4  5  6  7  8  9  10  11  12  23  26  30  31 0
 6-311+G(2d,p)
 ****
 33  35  36  37  38 0
 6-311+G(2d,p)
 ****
 1  2  13  14  15  16  17  18  19  20  21  22  24  25 0
 3-21G
 ****
 27  28  29  32  34  39  40  41  42  43  44  45  46  47  48  49 0
 3-21G
 ****


