%nproc=1
%NoSave
%Mem=1900MB
#P OB98/GEN NMR

erre ene a

0 1
  C      -16.511      91.141      26.685
  O      -15.232      90.934      27.236
  H      -16.926      92.061      27.108
  H      -17.178      90.315      26.942
  H      -16.451      91.253      25.599
  P      -14.400      89.623      26.822
  C      -15.736      88.377      28.625
  O      -14.440      88.668      28.119
  C      -15.689      87.208      29.610
  O      -15.312      85.994      28.905
  C      -14.689      87.406      30.760
  O      -15.309      87.070      32.002
  C      -13.589      86.402      30.450
  O      -12.853      86.009      31.604
  C      -14.393      85.295      29.763
  N      -13.539      84.371      29.029
  C      -13.084      83.255      29.737
  O      -13.414      83.090      30.915
  N      -12.226      82.382      29.119
  C      -11.819      82.629      27.914
  N      -10.946      81.741      27.369
  C      -12.251      83.810      27.138
  C      -13.106      84.628      27.749
  O      -13.037      89.896      26.280
  O      -15.345      88.849      25.787
  H      -12.359      86.789      31.940
  H      -14.789      88.253      25.233
  H      -11.878      83.973      26.137
  H      -13.479      85.523      27.260
  H      -14.979      84.722      30.496
  H      -12.884      86.847      29.737
  H      -14.297      88.421      30.819
  H      -16.704      87.037      29.992
  H      -10.672      80.948      27.937
  H      -16.397      88.143      27.783
  H      -10.543      81.839      26.449
  H      -16.112      89.264      29.143
  P      -15.859      88.299      32.874
  C      -14.139      88.185      34.811
  O      -15.490      88.023      34.410
  O      -17.447      88.111      32.813
  O      -15.448      89.634      32.347
  H      -17.846      88.814      32.270
  H      -14.048      87.968      35.855
  H      -13.831      89.193      34.629
  H      -13.518      87.516      34.252

 6  7  8  9  10  11  12  13  14  15  16  26  30  31  32  33  35 0
 6-311+G(2d,p)
 ****
 37  38 0
 6-311+G(2d,p)
 ****
 1  2  3  4  5  17  18  19  20  21  22  23  24  25 0
 3-21G
 ****
 27  28  29  34  36  39  40  41  42  43  44  45  46 0
 3-21G
 ****


