%nproc=1
%NoSave
%Mem=1900MB
#P OB98/GEN NMR

erre ene a

0 1
  C     -162.416      58.415      50.649
  O     -161.995      59.569      51.346
  H     -161.988      58.435      49.644
  H     -163.506      58.395      50.566
  H     -162.066      57.517      51.165
  P     -162.598      59.789      52.815
  C     -160.548      61.226      53.514
  O     -161.962      61.147      53.380
  C     -160.110      62.686      53.445
  O     -160.278      63.184      52.096
  C     -160.926      63.622      54.324
  O     -160.540      63.571      55.687
  C     -160.615      64.963      53.684
  O     -159.388      65.516      54.181
  C     -160.500      64.605      52.191
  N     -161.680      65.028      51.441
  C     -161.663      66.342      50.981
  O     -160.727      67.115      51.176
  N     -162.784      66.754      50.314
  C     -163.913      66.016      50.114
  O     -164.906      66.467      49.555
  C     -163.880      64.641      50.637
  C     -162.784      64.217      51.272
  O     -161.885      58.646      53.677
  O     -164.086      59.711      52.903
  H     -162.523      57.937      53.878
  H     -159.503      65.599      55.149
  H     -162.791      67.702      49.969
  H     -164.761      64.028      50.498
  H     -162.740      63.211      51.677
  H     -159.622      65.091      51.747
  H     -161.401      65.685      53.890
  H     -161.997      63.412      54.209
  H     -159.045      62.743      53.704
  H     -160.070      60.674      52.700
  H     -160.255      60.773      54.465
  P     -161.582      64.113      56.781
  C     -160.408      62.738      58.693
  O     -160.832      63.996      58.193
  O     -162.649      62.923      56.785
  O     -162.132      65.458      56.449
  H     -162.247      62.075      56.525
  H     -159.932      62.873      59.642
  H     -159.716      62.296      58.007
  H     -161.256      62.096      58.808

 6  7  8  9  10  11  12  13  14  15  16  27  31  32  33  34  35 0
 6-311+G(2d,p)
 ****
 36  37 0
 6-311+G(2d,p)
 ****
 1  2  3  4  5  17  18  19  20  21  22  23  24  25 0
 3-21G
 ****
 26  28  29  30  38  39  40  41  42  43  44  45 0
 3-21G
 ****


