%nproc=1
%NoSave
%Mem=1900MB
#P OB98/GEN NMR

erre ene a

0 1
  C     -170.127    -236.520    -144.212
  O     -171.320    -237.241    -144.429
  H     -169.510    -236.584    -145.111
  H     -169.580    -236.964    -143.377
  H     -170.329    -235.467    -143.998
  P     -172.579    -236.947    -143.489
  C     -173.687    -239.122    -144.338
  O     -173.325    -238.343    -143.204
  C     -174.098    -240.540    -143.942
  O     -172.931    -241.277    -143.513
  C     -175.088    -240.562    -142.777
  O     -176.452    -240.450    -143.162
  C     -174.807    -241.924    -142.149
  O     -175.600    -242.958    -142.760
  C     -173.317    -242.150    -142.439
  N     -170.740    -244.166    -138.506
  C     -171.632    -244.782    -139.368
  N     -171.889    -246.081    -139.117
  N     -172.219    -244.163    -140.358
  C     -171.940    -242.842    -140.420
  C     -171.090    -242.117    -139.611
  C     -170.383    -242.825    -138.563
  O     -169.571    -242.331    -137.789
  N     -171.086    -240.783    -139.951
  C     -171.996    -240.694    -140.902
  N     -172.484    -241.926    -141.274
  O     -173.611    -236.202    -144.468
  O     -172.300    -236.109    -142.279
  H     -175.265    -243.100    -143.668
  H     -174.147    -235.569    -143.956
  H     -170.297    -244.697    -137.781
  H     -172.308    -239.774    -141.378
  H     -173.127    -243.178    -142.775
  H     -175.061    -241.924    -141.084
  H     -171.533    -246.584    -138.319
  H     -174.840    -239.791    -142.042
  H     -172.676    -246.519    -139.605
  H     -174.499    -241.060    -144.822
  H     -172.809    -239.151    -144.985
  H     -174.489    -238.634    -144.895
  P     -177.374    -239.280    -142.583
  C     -179.518    -240.284    -143.712
  O     -178.882    -239.796    -142.551
  O     -177.375    -238.203    -143.766
  O     -176.922    -238.686    -141.287
  H     -176.734    -237.493    -143.586
  H     -180.519    -240.577    -143.474
  H     -178.979    -241.129    -144.086
  H     -179.538    -239.516    -144.457

 6  7  8  9  10  11  12  13  14  15  26  29  33  34 0
 6-311+G(2d,p)
 ****
 36  38  39  40  41 0
 6-311+G(2d,p)
 ****
 1  2  3  4  5  16  17  18  19  20  21  22  23  24  25 0
 3-21G
 ****
 27  28  30  31  32  35  37  42  43  44  45  46  47 0
 3-21G
 ****
 48  49 0
 3-21G
 ****


