%nproc=1
%NoSave
%Mem=1900MB
#P OB98/GEN NMR

erre ene a

0 1
  C       75.823     -84.756    -342.135
  O       77.162     -84.667    -342.575
  H       75.742     -85.600    -341.442
  H       75.160     -84.933    -342.984
  H       75.526     -83.846    -341.610
  P       77.599     -83.414    -343.474
  C       77.010     -84.741    -345.606
  O       76.815     -83.539    -344.865
  C       75.992     -84.830    -346.736
  O       74.707     -85.247    -346.218
  C       75.733     -83.503    -347.437
  O       76.796     -83.156    -348.306
  C       74.408     -83.791    -348.119
  O       74.603     -84.505    -349.347
  C       73.692     -84.683    -347.077
  N       72.697     -83.940    -346.309
  C       71.365     -84.294    -346.515
  O       71.015     -85.187    -347.289
  N       70.435     -83.541    -345.846
  C       70.701     -82.412    -345.125
  O       69.830     -81.630    -344.753
  C       72.123     -82.120    -344.887
  C       73.044     -82.879    -345.492
  O       79.069     -83.179    -343.589
  O       76.865     -82.172    -342.762
  H       77.517     -81.682    -342.225
  H       73.708     -84.749    -349.664
  H       69.471     -83.765    -346.027
  H       72.376     -81.278    -344.260
  H       74.100     -82.663    -345.358
  H       73.195     -85.525    -347.573
  H       73.864     -82.872    -348.351
  H       75.581     -82.711    -346.691
  H       76.333     -85.589    -347.459
  H       76.879     -85.595    -344.927
  H       78.031     -84.753    -346.000
  P       77.102     -81.617    -348.640
  C       75.728     -81.512    -350.811
  O       75.864     -81.031    -349.475
  O       78.439     -81.348    -349.233
  O       76.944     -80.876    -347.219
  H       77.737     -80.324    -347.069
  H       74.875     -81.057    -351.269
  H       75.601     -82.574    -350.796
  H       76.607     -81.266    -351.370

 6  7  8  9  10  11  12  13  14  15  16  27  31  32  33  34  35 0
 6-311+G(2d,p)
 ****
 36  37 0
 6-311+G(2d,p)
 ****
 1  2  3  4  5  17  18  19  20  21  22  23  24  25 0
 3-21G
 ****
 26  28  29  30  38  39  40  41  42  43  44  45 0
 3-21G
 ****


