%nproc=1
%NoSave
%Mem=1900MB
#P OB98/GEN NMR

erre ene a

0 1
  C     -990.514    1617.137     629.186
  O     -990.875    1616.155     628.234
  H     -989.552    1617.564     628.904
  H     -990.427    1616.702     630.171
  H     -991.262    1617.947     629.208
  P     -992.230    1615.331     628.541
  C     -991.414    1613.041     627.612
  O     -992.227    1614.175     627.416
  C     -991.612    1612.037     626.451
  O     -992.995    1611.623     626.374
  C     -991.307    1612.629     625.083
  O     -989.908    1612.676     624.801
  C     -992.002    1611.601     624.190
  O     -991.226    1610.365     624.171
  C     -993.317    1611.412     624.990
  N     -994.394    1612.336     624.548
  C     -995.347    1611.786     623.660
  O     -995.278    1610.611     623.279
  N     -996.350    1612.597     623.198
  C     -996.390    1613.839     623.601
  N     -997.409    1614.594     623.099
  C     -995.434    1614.447     624.537
  C     -994.471    1613.630     624.972
  O     -993.385    1616.314     628.048
  O     -992.383    1614.841     629.949
  H     -990.302    1610.629     624.128
  H     -994.260    1615.845     628.063
  H     -995.502    1615.472     624.816
  H     -993.708    1614.003     625.639
  H     -993.671    1610.370     624.882
  H     -992.137    1611.926     623.157
  H     -991.779    1613.585     624.921
  H     -991.017    1611.154     626.669
  H     -998.026    1614.179     622.422
  H     -991.684    1612.557     628.554
  H     -997.472    1615.615     623.225
  H     -990.362    1613.335     627.649
  P     -989.205    1614.124     624.867
  C     -988.065    1613.950     622.532
  O     -987.894    1614.052     623.928
  O     -988.592    1614.145     626.355
  O     -990.099    1615.302     624.601
  H     -988.616    1615.058     626.719
  H     -987.107    1613.913     622.057
  H     -988.607    1614.801     622.176
  H     -988.611    1613.059     622.304

 6  7  8  9  10  11  12  13  14  15  16  26  30  31  32  33  35 0
 6-311+G(2d,p)
 ****
 37  38 0
 6-311+G(2d,p)
 ****
 1  2  3  4  5  17  18  19  20  21  22  23  24  25 0
 3-21G
 ****
 27  28  29  34  36  39  40  41  42  43  44  45  46 0
 3-21G
 ****


