%nproc=1
%NoSave
%Mem=1900MB
#P OB98/GEN NMR

erre ene a

0 1
  C       84.320     -90.024    -133.807
  O       83.259     -89.523    -133.022
  H       84.106     -91.066    -134.057
  H       85.258     -89.987    -133.247
  H       84.416     -89.455    -134.736
  P       83.333     -88.001    -132.517
  C       83.228     -88.823    -130.062
  O       83.966     -88.109    -131.042
  C       84.157     -89.730    -129.260
  O       84.397     -90.976    -129.949
  C       85.548     -89.160    -129.006
  O       85.577     -88.129    -128.037
  C       86.263     -90.415    -128.537
  O       85.875     -90.714    -127.184
  C       85.702     -91.462    -129.528
  N       86.573     -91.666    -130.683
  C       86.370     -92.840    -131.421
  O       85.506     -93.648    -131.090
  N       87.181     -93.087    -132.504
  C       88.124     -92.250    -132.808
  N       88.900     -92.550    -133.887
  C       88.384     -91.014    -132.048
  C       87.580     -90.785    -131.012
  O       82.066     -87.215    -132.617
  O       84.548     -87.363    -133.342
  H       86.321     -91.545    -126.938
  H       84.630     -86.416    -133.073
  H       89.201     -90.366    -132.325
  H       87.714     -89.900    -130.400
  H       85.544     -92.425    -129.028
  H       87.350     -90.322    -128.548
  H       86.011     -88.828    -129.944
  H       83.645     -89.976    -128.320
  H       88.699     -93.405    -134.388
  H       82.455     -89.406    -130.573
  H       89.705     -91.996    -134.150
  H       82.747     -88.124    -129.371
  P       86.055     -86.675    -128.534
  C       87.005     -86.392    -126.118
  O       87.194     -86.204    -127.511
  O       84.806     -85.744    -128.183
  O       86.449     -86.594    -129.975
  H       84.252     -85.594    -128.976
  H       87.859     -86.022    -125.589
  H       86.882     -87.435    -125.912
  H       86.132     -85.861    -125.802

 6  7  8  9  10  11  12  13  14  15  16  26  30  31  32  33  35 0
 6-311+G(2d,p)
 ****
 37  38 0
 6-311+G(2d,p)
 ****
 1  2  3  4  5  17  18  19  20  21  22  23  24  25 0
 3-21G
 ****
 27  28  29  34  36  39  40  41  42  43  44  45  46 0
 3-21G
 ****


