%nproc=1
%NoSave
%Mem=1900MB
#P OB98/GEN NMR

erre ene a

0 1
  C      -47.446    -423.072      32.640
  O      -47.919    -424.405      32.668
  H      -46.386    -423.083      32.371
  H      -47.552    -422.625      33.632
  H      -47.993    -422.480      31.902
  P      -49.511    -424.608      32.715
  C      -49.799    -425.892      30.479
  O      -50.005    -424.681      31.188
  C      -51.027    -426.230      29.638
  O      -52.045    -426.842      30.458
  C      -51.682    -425.022      28.971
  O      -51.032    -424.682      27.754
  C      -53.076    -425.570      28.712
  O      -53.051    -426.447      27.564
  C      -53.344    -426.381      29.987
  N      -57.792    -424.884      31.907
  C      -57.517    -425.592      30.753
  N      -58.580    -425.939      29.995
  N      -56.314    -425.920      30.368
  C      -55.348    -425.485      31.210
  C      -55.489    -424.774      32.378
  C      -56.828    -424.429      32.799
  O      -57.123    -423.817      33.823
  N      -54.280    -424.509      32.962
  C      -53.402    -425.041      32.136
  N      -53.998    -425.641      31.053
  O      -50.033    -423.176      33.217
  O      -49.986    -425.703      33.608
  H      -52.867    -425.890      26.787
  H      -50.261    -423.239      34.163
  H      -58.737    -424.648      32.152
  H      -52.328    -425.025      32.274
  H      -53.953    -427.269      29.792
  H      -53.802    -424.783      28.493
  H      -59.533    -425.698      30.223
  H      -51.743    -424.166      29.653
  H      -58.403    -426.459      29.147
  H      -50.727    -426.969      28.886
  H      -49.615    -426.703      31.194
  H      -48.922    -425.779      29.832
  P      -50.811    -423.128      27.420
  C      -48.239    -422.799      27.410
  O      -49.451    -422.684      28.146
  O      -51.952    -422.418      28.292
  O      -50.922    -422.768      25.981
  H      -52.628    -422.033      27.703
  H      -47.421    -422.469      28.016
  H      -48.297    -422.193      26.530
  H      -48.087    -423.821      27.131

 6  7  8  9  10  11  12  13  14  15  26  29  33  34 0
 6-311+G(2d,p)
 ****
 36  38  39  40  41 0
 6-311+G(2d,p)
 ****
 1  2  3  4  5  16  17  18  19  20  21  22  23  24  25 0
 3-21G
 ****
 27  28  30  31  32  35  37  42  43  44  45  46  47 0
 3-21G
 ****
 48  49 0
 3-21G
 ****


