%nproc=1
%NoSave
%Mem=1900MB
#P OB98/GEN NMR

erre ene a

0 1
  C      -93.757     549.027    1532.614
  O      -93.494     547.646    1532.777
  H      -92.807     549.561    1532.561
  H      -94.318     549.399    1533.466
  H      -94.308     549.210    1531.689
  P      -94.715     546.611    1532.713
  C      -92.931     545.025    1531.733
  O      -94.084     545.145    1532.567
  C      -91.908     544.114    1532.410
  O      -92.525     542.865    1532.807
  C      -90.734     543.733    1531.503
  O      -89.816     544.790    1531.348
  C      -90.193     542.508    1532.248
  O      -89.342     542.911    1533.334
  C      -91.493     541.858    1532.786
  N      -91.904     540.706    1531.977
  C      -91.448     539.459    1532.415
  O      -90.770     539.306    1533.440
  N      -91.770     538.399    1531.615
  C      -92.359     538.472    1530.370
  O      -92.405     537.542    1529.601
  C      -92.838     539.806    1529.988
  C      -92.583     540.846    1530.786
  O      -95.794     546.945    1531.729
  O      -95.277     546.608    1534.216
  H      -96.085     547.162    1534.254
  H      -88.883     542.105    1533.634
  H      -91.422     537.492    1531.904
  H      -93.386     539.907    1529.048
  H      -92.929     541.849    1530.510
  H      -91.346     541.522    1533.815
  H      -89.620     541.869    1531.590
  H      -91.118     543.407    1530.527
  H      -91.538     544.619    1533.326
  H      -92.505     546.019    1531.591
  H      -93.240     544.609    1530.757
  P      -89.264     545.170    1529.895
  C      -87.709     546.858    1531.055
  O      -87.813     545.849    1530.063
  O      -90.210     545.940    1529.028
  O      -88.917     543.764    1529.242
  H      -89.331     543.718    1528.341
  H      -86.708     547.235    1531.077
  H      -87.956     546.445    1532.011
  H      -88.385     547.655    1530.825

 6  7  8  9  10  11  12  13  14  15  16  27  31  32  33  34  35 0
 6-311+G(2d,p)
 ****
 36  37 0
 6-311+G(2d,p)
 ****
 1  2  3  4  5  17  18  19  20  21  22  23  24  25 0
 3-21G
 ****
 26  28  29  30  38  39  40  41  42  43  44  45 0
 3-21G
 ****


