%nproc=1
%NoSave
%Mem=1900MB
#P OB98/GEN NMR

erre ene a

0 1
  C     -432.545     257.934    -300.389
  O     -431.430     258.204    -301.217
  H     -433.450     257.980    -301.002
  H     -432.621     258.677    -299.593
  H     -432.464     256.931    -299.960
  P     -429.982     258.309    -300.534
  C     -428.933     257.500    -302.754
  O     -428.925     258.481    -301.725
  C     -428.325     258.064    -304.050
  O     -429.283     258.986    -304.653
  C     -427.013     258.841    -303.834
  O     -426.232     258.694    -305.025
  C     -427.530     260.261    -303.701
  O     -426.487     261.199    -303.822
  C     -428.618     260.266    -304.778
  N     -429.545     261.376    -304.632
  C     -429.120     262.607    -305.149
  O     -428.012     262.711    -305.664
  N     -429.946     263.694    -305.020
  C     -431.070     263.580    -304.377
  N     -431.836     264.702    -304.283
  C     -431.530     262.311    -303.777
  C     -430.727     261.261    -303.940
  O     -429.649     257.238    -299.549
  O     -429.987     259.754    -299.846
  H     -426.830     262.118    -303.737
  H     -430.091     259.661    -298.883
  H     -432.465     262.278    -303.241
  H     -430.982     260.286    -303.531
  H     -428.176     260.309    -305.785
  H     -427.976     260.416    -302.710
  H     -426.452     258.494    -302.961
  H     -428.184     257.242    -304.765
  H     -431.478     265.547    -304.703
  H     -429.972     257.209    -302.926
  H     -432.718     264.733    -303.795
  H     -428.364     256.616    -302.438
  P     -424.761     258.056    -305.028
  C     -425.096     257.241    -307.454
  O     -424.246     257.919    -306.542
  O     -424.641     256.798    -304.234
  O     -423.816     259.202    -304.417
  H     -423.074     258.778    -303.943
  H     -424.638     257.220    -308.421
  H     -426.034     257.752    -307.515
  H     -425.257     256.239    -307.114

 6  7  8  9  10  11  12  13  14  15  16  26  30  31  32  33  35 0
 6-311+G(2d,p)
 ****
 37  38 0
 6-311+G(2d,p)
 ****
 1  2  3  4  5  17  18  19  20  21  22  23  24  25 0
 3-21G
 ****
 27  28  29  34  36  39  40  41  42  43  44  45  46 0
 3-21G
 ****


