%nproc=1
%NoSave
%Mem=1900MB
#P OB98/GEN NMR

erre ene a

0 1
  C      117.645    -253.992     160.480
  O      117.471    -252.909     159.594
  H      118.387    -254.673     160.052
  H      116.708    -254.541     160.602
  H      118.007    -253.643     161.450
  P      116.398    -251.769     159.950
  C      115.719    -250.712     162.188
  O      116.784    -251.274     161.433
  C      116.220    -250.163     163.523
  O      116.736    -251.253     164.334
  C      117.341    -249.121     163.382
  O      117.060    -247.992     164.212
  C      118.570    -249.846     163.907
  O      119.580    -248.959     164.383
  C      117.937    -250.764     164.957
  N      118.835    -251.839     165.358
  C      119.520    -251.652     166.564
  O      119.347    -250.628     167.225
  N      120.426    -252.601     166.963
  C      120.663    -253.623     166.203
  N      121.595    -254.511     166.643
  C      119.983    -253.844     164.911
  C      119.086    -252.925     164.556
  O      114.975    -252.172     159.768
  O      116.817    -250.516     159.043
  H      119.301    -248.611     165.257
  H      116.035    -249.927     158.934
  H      120.221    -254.712     164.310
  H      118.539    -253.001     163.623
  H      117.650    -250.194     165.853
  H      119.006    -250.452     163.099
  H      117.484    -248.781     162.356
  H      115.364    -249.750     164.073
  H      122.041    -254.316     167.532
  H      114.961    -251.486     162.353
  H      121.879    -255.329     166.127
  H      115.277    -249.895     161.609
  P      116.088    -246.878     163.588
  C      113.725    -247.110     162.539
  O      114.590    -247.456     163.609
  O      116.480    -246.874     162.036
  O      116.260    -245.528     164.200
  H      116.945    -246.045     161.813
  H      112.769    -247.566     162.691
  H      114.142    -247.456     161.617
  H      113.611    -246.047     162.502

 6  7  8  9  10  11  12  13  14  15  16  26  30  31  32  33  35 0
 6-311+G(2d,p)
 ****
 37  38 0
 6-311+G(2d,p)
 ****
 1  2  3  4  5  17  18  19  20  21  22  23  24  25 0
 3-21G
 ****
 27  28  29  34  36  39  40  41  42  43  44  45  46 0
 3-21G
 ****


