%nproc=1
%NoSave
%Mem=1900MB
#P OB98/GEN NMR

erre ene a

0 1
  C      449.260     191.659    -894.690
  O      448.697     190.689    -893.810
  P      449.613     189.440    -893.400
  C      451.036     187.864    -894.910
  O      449.799     188.545    -894.700
  C      451.369     187.825    -896.410
  O      451.821     189.123    -896.860
  C      452.470     186.849    -896.760
  O      452.014     185.510    -896.800
  C      452.928     187.362    -898.120
  O      452.085     186.873    -899.180
  C      452.746     188.890    -897.950
  N      454.027     189.582    -897.730
  C      454.756     189.889    -898.870
  O      454.387     189.580    -900.000
  N      455.955     190.528    -898.670
  C      456.491     190.848    -897.460
  O      457.590     191.354    -897.340
  C      455.684     190.475    -896.270
  C      454.513     189.866    -896.470
  O      448.654     188.567    -892.470
  O      450.896     189.811    -892.700
  H      452.292     187.411    -899.960
  H      449.175     188.139    -891.750
  H      456.493     190.771    -899.490
  H      456.096     190.697    -895.290
  H      453.917     189.570    -895.620
  H      452.274     189.316    -898.840
  H      453.948     187.064    -898.370
  H      453.315     186.943    -896.050
  H      450.453     187.565    -896.960
  H      450.951     186.845    -894.520
  H      451.822     188.387    -894.370
  P      453.068     184.346    -896.450
  C      455.072     183.410    -897.840
  O      453.810     184.029    -897.840
  O      452.070     183.108    -896.210
  O      453.938     184.695    -895.300
  H      451.276     183.162    -896.770
  H      455.168     182.683    -897.020
  H      455.854     184.160    -897.730
  H      455.207     182.900    -898.800
  H      448.542     192.431    -894.876
  H      449.527     191.190    -895.614
  H      450.133     192.085    -894.240

 3  4  5  6  7  8  9  10  11  12  13  23  28  29  30  31  32 0
 6-311+G(2d,p)
 ****
 33  34 0
 6-311+G(2d,p)
 ****
 1  2  14  15  16  17  18  19  20  21  22  24  25  26 0
 3-21G
 ****
 27  35  36  37  38  39  40  41  42  43  44  45 0
 3-21G
 ****


