%nproc=1
%NoSave
%Mem=1900MB
#P OB98/GEN NMR

erre ene a

0 1
  C      275.570     869.391     340.722
  O      276.162     870.118     339.659
  P      276.613     869.378     338.300
  C      279.008     868.893     339.147
  O      278.202     869.601     338.217
  C      280.469     868.940     338.705
  O      280.679     868.036     337.603
  C      280.936     870.310     338.208
  O      281.158     871.195     339.296
  C      282.174     869.921     337.417
  O      283.285     869.697     338.292
  C      281.737     868.586     336.776
  N      281.303     868.724     335.389
  C      282.309     868.719     334.425
  O      283.498     868.600     334.736
  N      281.948     868.828     333.098
  C      280.700     868.953     332.778
  N      280.395     868.985     331.450
  C      279.609     869.012     333.771
  C      279.980     868.897     335.048
  O      275.861     869.786     337.082
  O      276.499     867.819     338.643
  H      283.015     869.016     338.931
  H      275.605     867.439     338.463
  H      278.589     869.136     333.450
  H      279.247     868.909     335.830
  H      282.558     867.857     336.824
  H      282.468     870.668     336.672
  H      280.186     870.748     337.538
  H      281.089     868.606     339.554
  H      281.149     868.766     330.809
  H      278.677     867.852     339.166
  H      279.458     868.784     331.121
  H      278.883     869.327     340.144
  P      280.603     872.689     339.161
  C      281.831     873.464     337.007
  O      281.769     873.521     338.415
  O      280.634     873.233     340.671
  O      279.258     872.797     338.544
  H      279.736     873.214     341.047
  H      282.507     874.256     336.654
  H      280.843     873.635     336.566
  H      282.221     872.497     336.687
  H      275.344     870.058     341.528
  H      276.250     868.638     341.062
  H      274.668     868.928     340.379

 3  4  5  6  7  8  9  10  11  12  13  23  27  28  29  30  32 0
 6-311+G(2d,p)
 ****
 34  35 0
 6-311+G(2d,p)
 ****
 1  2  14  15  16  17  18  19  20  21  22  24  25  26 0
 3-21G
 ****
 31  33  36  37  38  39  40  41  42  43  44  45  46 0
 3-21G
 ****


