%nproc=1
%NoSave
%Mem=1900MB
#P OB98/GEN NMR

erre ene a

0 1
  C      -31.392      45.321      -9.009
  O      -30.941      44.071      -8.540
  P      -31.582      43.306      -7.298
  C      -33.939      43.245      -8.426
  O      -33.160      43.585      -7.285
  C      -35.084      42.295      -8.047
  O      -35.905      42.071      -9.221
  C      -34.555      40.922      -7.602
  O      -35.231      40.375      -6.478
  C      -34.580      40.114      -8.893
  O      -34.570      38.711      -8.686
  C      -35.816      40.678      -9.587
  N      -37.169      37.913     -13.627
  C      -37.579      37.792     -12.315
  N      -38.294      36.686     -12.017
  N      -37.280      38.658     -11.383
  C      -36.465      39.651     -11.807
  C      -35.996      39.875     -13.080
  C      -36.360      38.929     -14.107
  O      -35.926      38.934     -15.259
  N      -35.137      40.941     -13.126
  C      -35.057      41.344     -11.874
  N      -35.820      40.569     -11.031
  O      -30.842      43.395      -6.003
  O      -31.516      41.770      -7.793
  H      -35.404      38.473      -8.241
  H      -31.359      41.220      -7.001
  H      -37.365      37.167     -14.285
  H      -34.444      42.163     -11.519
  H      -36.727      40.184      -9.245
  H      -33.672      40.359      -9.453
  H      -38.412      35.932     -12.678
  H      -33.518      41.004      -7.257
  H      -38.389      36.450     -11.032
  H      -35.711      42.771      -7.286
  H      -33.258      42.752      -9.128
  H      -34.326      44.145      -8.909
  P      -34.814      39.136      -5.564
  C      -33.260      40.790      -4.371
  O      -33.418      39.471      -4.855
  O      -34.420      37.976      -6.591
  O      -35.881      38.660      -4.633
  H      -34.743      37.118      -6.255
  H      -32.200      40.966      -4.170
  H      -33.822      40.910      -3.441
  H      -33.608      41.520      -5.109
  H      -30.801      45.621      -9.849
  H      -31.299      46.049      -8.230
  H      -32.418      45.242      -9.304

 3  4  5  6  7  8  9  10  11  12  23  26  30  31 0
 6-311+G(2d,p)
 ****
 33  35  36  37  38 0
 6-311+G(2d,p)
 ****
 1  2  13  14  15  16  17  18  19  20  21  22  24  25 0
 3-21G
 ****
 27  28  29  32  34  39  40  41  42  43  44  45  46  47  48  49 0
 3-21G
 ****


