%nproc=1
%NoSave
%Mem=1900MB
#P OB98/GEN NMR

erre ene a

0 1
  C     -207.660    -475.507     213.860
  O     -207.396    -476.051     212.584
  H     -206.932    -475.910     214.568
  H     -208.662    -475.797     214.187
  H     -207.574    -474.418     213.852
  P     -208.125    -475.416     211.305
  C     -206.662    -473.373     210.718
  O     -206.973    -474.728     210.424
  C     -206.032    -472.681     209.507
  O     -205.878    -471.264     209.803
  C     -204.646    -473.226     209.129
  O     -204.499    -473.079     207.710
  C     -203.728    -472.259     209.855
  O     -202.414    -472.311     209.346
  C     -204.482    -470.942     209.651
  N     -204.050    -469.900     210.586
  C     -202.710    -469.546     210.540
  O     -201.890    -470.083     209.789
  N     -202.314    -468.577     211.421
  C     -203.104    -467.991     212.366
  O     -202.690    -467.148     213.154
  C     -204.505    -468.440     212.399
  C     -204.909    -469.357     211.519
  O     -209.296    -474.536     211.597
  O     -208.534    -476.681     210.413
  H     -201.807    -471.787     209.915
  H     -209.345    -476.486     209.908
  H     -201.344    -468.300     211.394
  H     -205.155    -467.999     213.142
  H     -205.937    -469.709     211.513
  H     -204.331    -470.566     208.631
  H     -203.673    -472.507     210.920
  H     -204.493    -474.266     209.425
  H     -206.725    -472.755     208.662
  H     -205.958    -473.364     211.559
  H     -207.575    -472.847     211.016
  P     -204.749    -474.296     206.698
  C     -207.307    -474.138     206.410
  O     -206.035    -473.962     205.791
  O     -204.798    -475.641     207.353
  O     -203.533    -474.220     205.656
  H     -203.345    -475.109     205.305
  H     -208.080    -473.887     205.714
  H     -207.378    -473.501     207.267
  H     -207.418    -475.158     206.714

 6  7  8  9  10  11  12  13  14  15  16  26  31  32  33  34  35 0
 6-311+G(2d,p)
 ****
 36  37 0
 6-311+G(2d,p)
 ****
 1  2  3  4  5  17  18  19  20  21  22  23  24  25 0
 3-21G
 ****
 27  28  29  30  38  39  40  41  42  43  44  45 0
 3-21G
 ****


