%nproc=1
%NoSave
%Mem=1900MB
#P OB98/GEN NMR

erre ene a

0 1
  C       -3.423     -20.427      96.508
  O       -4.611     -20.468      95.708
  P       -5.705     -19.317      95.923
  C       -5.385     -18.429      93.497
  O       -6.288     -18.891      94.491
  C       -6.092     -18.306      92.145
  O       -6.260     -19.590      91.510
  C       -7.492     -17.717      92.237
  O       -7.457     -16.299      92.306
  C       -8.089     -18.167      90.914
  O       -7.641     -17.298      89.855
  C       -7.485     -19.565      90.743
  N      -12.032     -21.844      90.141
  C      -11.478     -20.765      89.545
  N      -10.270     -20.208      89.771
  C       -9.603     -20.890      90.715
  C      -10.038     -22.006      91.411
  C      -11.318     -22.489      91.092
  N      -11.875     -23.589      91.701
  N       -9.082     -22.425      92.312
  C       -8.080     -21.585      92.152
  N       -8.351     -20.635      91.205
  O       -4.819     -18.052      96.348
  O       -6.729     -19.640      96.959
  H       -8.110     -16.450      89.964
  H       -5.310     -17.505      96.988
  H      -12.086     -20.285      88.784
  H       -7.144     -21.626      92.693
  H       -7.227     -19.783      89.700
  H       -9.182     -18.131      90.912
  H       -8.050     -18.159      93.073
  H       -5.471     -17.677      91.494
  H       -4.535     -19.112      93.416
  H      -12.786     -23.893      91.401
  H      -11.337     -24.087      92.396
  H       -4.973     -17.465      93.812
  P       -8.287     -15.601      93.488
  C       -6.295     -14.594      94.816
  O       -7.399     -14.357      93.965
  O       -8.160     -16.655      94.686
  O       -9.709     -15.304      93.151
  H       -8.952     -16.610      95.256
  H       -5.641     -13.719      94.793
  H       -5.725     -15.467      94.489
  H       -6.645     -14.747      95.841
  H       -2.793     -21.253      96.253
  H       -3.688     -20.486      97.543
  H       -2.901     -19.511      96.325

 3  4  5  6  7  8  9  10  11  12  22  25  29  30  31  32 0
 6-311+G(2d,p)
 ****
 33  36  37 0
 6-311+G(2d,p)
 ****
 1  2  13  14  15  16  17  18  19  20  21  23  24  26 0
 3-21G
 ****
 27  28  34  35  38  39  40  41  42  43  44  45  46  47  48 0
 3-21G
 ****


