%nproc=1
%NoSave
%Mem=1900MB
#P OB98/GEN NMR

erre ene a

0 1
  C     -266.953     -10.546    -128.357
  O     -267.177     -11.593    -129.289
  P     -267.333     -11.196    -130.835
  C     -269.370      -9.674    -130.363
  O     -268.877     -10.813    -131.053
  C     -270.067      -8.711    -131.318
  O     -270.675      -7.638    -130.550
  C     -269.135      -8.070    -132.356
  O     -269.781      -8.070    -133.639
  C     -269.033      -6.625    -131.892
  O     -268.718      -5.743    -132.965
  C     -270.423      -6.428    -131.292
  N     -272.990      -2.136    -130.585
  C     -273.281      -3.212    -131.398
  N     -274.380      -3.104    -132.176
  N     -272.558      -4.301    -131.450
  C     -271.501      -4.285    -130.597
  C     -271.120      -3.282    -129.736
  C     -271.893      -2.062    -129.732
  O     -271.638      -1.036    -129.100
  N     -270.005      -3.642    -129.021
  C     -269.713      -4.853    -129.448
  N     -270.565      -5.270    -130.439
  O     -267.180     -12.603    -131.582
  O     -266.341     -10.203    -131.342
  H     -268.566      -4.858    -132.573
  H     -266.457     -12.550    -132.240
  H     -273.574      -1.317    -130.598
  H     -268.882      -5.454    -129.089
  H     -271.179      -6.351    -132.088
  H     -268.249      -6.547    -131.134
  H     -275.005      -2.314    -132.156
  H     -268.151      -8.547    -132.437
  H     -274.623      -3.892    -132.762
  H     -270.887      -9.251    -131.816
  H     -268.535      -9.156    -129.876
  H     -270.072     -10.007    -129.585
  P     -268.961      -8.764    -134.835
  C     -266.832      -7.285    -134.608
  O     -267.959      -7.641    -135.383
  O     -270.054      -8.900    -135.997
  O     -268.347     -10.072    -134.469
  H     -269.812      -9.623    -136.608
  H     -266.684      -7.957    -133.758
  H     -266.966      -6.264    -134.235
  H     -265.940      -7.314    -135.240
  H     -266.870     -10.957    -127.372
  H     -267.773      -9.859    -128.389
  H     -266.048     -10.033    -128.607

 3  4  5  6  7  8  9  10  11  12  23  26  30  31  33  0
 6-311+G(2d,p)
 ****
 35  36  37  38 0
 6-311+G(2d,p)
 ****
 1  2  13  14  15  16  17  18  19  20  21  22  24  25  27  28  29 0
 3-21G
 ****
 32  34  39  40  41  42  43  44  45  46  47  48  49 0
 3-21G
 ****


