%nproc=1
%NoSave
%Mem=1900MB
#P OB98/GEN NMR

erre ene a

0 1
  C        8.173      93.060     190.486
  O        7.803      94.312     191.029
  H        9.239      93.089     190.246
  H        7.616      92.873     189.565
  H        7.997      92.257     191.204
  P        6.318      94.500     191.601
  C        7.016      95.533     193.861
  O        6.353      95.741     192.621
  C        6.993      96.809     194.707
  O        8.049      97.692     194.247
  C        5.669      97.579     194.628
  O        5.373      98.139     195.907
  C        5.969      98.688     193.638
  O        5.136      99.830     193.836
  C        7.449      98.957     193.904
  N        8.268     103.248     191.363
  C        7.620     103.033     192.564
  N        7.096     104.118     193.173
  N        7.493     101.855     193.119
  C        8.087     100.864     192.410
  C        8.756     100.946     191.215
  C        8.871     102.253     190.598
  O        9.418     102.503     189.528
  N        9.201      99.713     190.802
  C        8.797      98.887     191.750
  N        8.107      99.535     192.742
  O        5.692      93.257     192.153
  O        5.488      95.074     190.361
  H        5.245     100.401     193.044
  H        4.910      94.388     189.980
  H        8.324     104.173     190.974
  H        8.974      97.821     191.764
  H        7.605      99.652     194.737
  H        5.814      98.324     192.614
  H        7.176     105.057     192.813
  H        4.844      96.947     194.304
  H        6.640     103.993     194.069
  H        7.228      96.542     195.746
  H        8.052      95.248     193.652
  H        6.525      94.714     194.399
  P        4.489      97.290     196.943
  C        5.904      97.726     199.045
  O        4.651      97.933     198.407
  O        4.674      95.812     196.881
  O        2.989      97.700     196.546
  H        2.407      96.926     196.678
  H        5.896      98.195     200.007
  H        6.683      98.151     198.447
  H        6.076      96.676     199.162

 6  7  8  9  10  11  12  13  14  15  26  29  33  34 0
 6-311+G(2d,p)
 ****
 36  38  39  40  41 0
 6-311+G(2d,p)
 ****
 1  2  3  4  5  16  17  18  19  20  21  22  23  24  25 0
 3-21G
 ****
 27  28  30  31  32  35  37  42  43  44  45  46  47 0
 3-21G
 ****
 48  49 0
 3-21G
 ****


