%nproc=1
%NoSave
%Mem=1900MB
#P OB98/GEN NMR

erre ene a

0 1
  C     1743.896     702.889    -316.144
  O     1743.186     702.974    -317.365
  H     1743.507     703.651    -315.456
  H     1744.958     703.080    -316.310
  H     1743.759     701.907    -315.678
  P     1743.443     701.856    -318.480
  C     1741.035     700.958    -318.200
  O     1742.423     700.649    -318.178
  C     1740.397     700.416    -319.486
  O     1740.663     698.988    -319.592
  C     1738.884     700.571    -319.538
  O     1738.501     701.897    -319.834
  C     1738.542     699.546    -320.621
  O     1738.742     700.109    -321.932
  C     1739.564     698.424    -320.352
  N     1738.958     697.294    -319.633
  C     1737.976     696.582    -320.312
  O     1737.612     696.873    -321.467
  N     1737.367     695.589    -319.608
  C     1737.555     695.334    -318.277
  O     1736.806     694.598    -317.634
  C     1738.649     696.067    -317.623
  C     1739.277     697.009    -318.323
  O     1744.867     701.455    -318.691
  O     1742.826     702.513    -319.814
  H     1743.548     702.853    -320.368
  H     1738.313     699.494    -322.557
  H     1736.615     695.106    -320.077
  H     1738.872     695.842    -316.576
  H     1740.058     697.591    -317.856
  H     1739.978     698.043    -321.303
  H     1737.496     699.226    -320.547
  H     1738.456     700.244    -318.594
  H     1740.885     700.906    -320.345
  H     1740.925     702.049    -318.182
  H     1740.554     700.525    -317.325
  P     1737.176     702.514    -319.164
  C     1738.108     704.629    -318.022
  O     1737.602     703.307    -317.842
  O     1736.045     701.547    -318.991
  O     1736.771     703.700    -320.167
  H     1735.815     703.600    -320.396
  H     1738.355     705.049    -317.069
  H     1737.364     705.234    -318.496
  H     1738.984     704.595    -318.635

 6  7  8  9  10  11  12  13  14  15  16  27  31  32  33  34  35 0
 6-311+G(2d,p)
 ****
 36  37 0
 6-311+G(2d,p)
 ****
 1  2  3  4  5  17  18  19  20  21  22  23  24  25 0
 3-21G
 ****
 26  28  29  30  38  39  40  41  42  43  44  45 0
 3-21G
 ****


