%nproc=1
%NoSave
%Mem=1900MB
#P OB98/GEN NMR

erre ene a

0 1
  C      703.171    -237.272     338.353
  O      702.366    -236.938     337.219
  P      701.387    -235.665     337.296
  C      701.199    -236.125     334.728
  O      700.678    -235.469     335.872
  C      700.070    -236.768     333.918
  O      699.562    -237.936     334.605
  C      698.854    -235.878     333.713
  O      699.081    -234.894     332.707
  C      697.791    -236.890     333.334
  O      697.865    -237.226     331.941
  C      698.185    -238.098     334.212
  N      697.310    -238.267     335.369
  C      696.223    -239.119     335.209
  O      695.948    -239.673     334.142
  N      695.434    -239.295     336.318
  C      695.576    -238.653     337.515
  O      694.821    -238.832     338.464
  C      696.694    -237.706     337.601
  C      697.489    -237.549     336.537
  O      702.428    -234.449     337.316
  O      700.488    -235.612     338.491
  H      698.806    -237.437     331.753
  H      702.037    -233.685     337.793
  H      694.656    -239.929     336.231
  H      696.836    -237.154     338.520
  H      698.328    -236.851     336.579
  H      698.148    -239.024     333.613
  H      696.774    -236.526     333.516
  H      698.575    -235.396     334.660
  H      700.485    -237.094     332.949
  H      701.900    -236.904     335.045
  H      701.742    -235.393     334.111
  P      699.408    -233.405     333.217
  C      700.402    -232.705     330.894
  O      699.415    -232.506     331.886
  O      700.943    -233.551     333.630
  O      698.511    -232.948     334.324
  H      701.422    -234.184     333.056
  H      700.688    -233.754     330.818
  H      701.276    -232.091     331.132
  H      699.988    -232.377     329.928
  H      703.757    -238.139     338.131
  H      702.539    -237.474     339.192
  H      703.819    -236.453     338.584

 3  4  5  6  7  8  9  10  11  12  13  23  28  29  30  31  32 0
 6-311+G(2d,p)
 ****
 33  34 0
 6-311+G(2d,p)
 ****
 1  2  14  15  16  17  18  19  20  21  22  24  25  26 0
 3-21G
 ****
 27  35  36  37  38  39  40  41  42  43  44  45 0
 3-21G
 ****


