%nproc=1
%NoSave
%Mem=1900MB
#P OB98/GEN NMR

erre ene a

0 1
  C       -3.566     -88.015     -89.144
  O       -4.624     -87.231     -89.701
  P       -4.271     -85.699     -90.029
  C       -6.163     -84.897     -91.606
  O       -5.651     -84.918     -90.282
  C       -6.601     -86.294     -92.060
  O       -7.444     -86.930     -91.054
  C       -7.394     -86.298     -93.372
  O       -7.050     -87.505     -94.066
  C       -8.831     -86.394     -92.896
  O       -9.700     -86.838     -93.934
  C       -8.653     -87.355     -91.722
  N      -13.121     -89.485     -90.728
  C      -12.284     -89.643     -91.814
  N      -12.668     -90.538     -92.749
  N      -11.164     -88.983     -91.968
  C      -10.888     -88.151     -90.933
  C      -11.630     -87.918     -89.799
  C      -12.882     -88.633     -89.656
  O      -13.658     -88.532     -88.715
  N      -11.003     -87.025     -88.962
  C       -9.920     -86.673     -89.633
  N       -9.776     -87.366     -90.804
  O       -3.603     -85.783     -91.482
  O       -3.354     -85.069     -89.031
  H       -9.378     -87.716     -94.233
  H       -2.632     -85.739     -91.408
  H      -13.980     -90.006     -90.668
  H       -9.197     -85.944     -89.305
  H       -8.517     -88.393     -92.054
  H       -9.181     -85.414     -92.549
  H      -13.490     -91.114     -92.669
  H       -7.214     -85.429     -94.011
  H      -12.050     -90.703     -93.535
  H       -5.702     -86.915     -92.170
  H       -5.402     -84.522     -92.295
  H       -6.995     -84.186     -91.657
  P       -6.343     -87.371     -95.496
  C       -4.841     -89.456     -95.202
  O       -5.874     -88.835     -95.939
  O       -4.966     -86.625     -95.152
  O       -7.128     -86.600     -96.509
  H       -4.758     -85.984     -95.856
  H       -4.950     -90.539     -95.287
  H       -4.873     -89.181     -94.143
  H       -3.873     -89.165     -95.619
  H       -3.915     -89.011     -88.968
  H       -3.248     -87.580     -88.219
  H       -2.743     -88.041     -89.827

 3  4  5  6  7  8  9  10  11  12  23  26  30  31 0
 6-311+G(2d,p)
 ****
 33  35  36  37  38 0
 6-311+G(2d,p)
 ****
 1  2  13  14  15  16  17  18  19  20  21  22  24  25 0
 3-21G
 ****
 27  28  29  32  34  39  40  41  42  43  44  45  46  47  48  49 0
 3-21G
 ****


