%nproc=1
%NoSave
%Mem=1900MB
#P OB98/GEN NMR

erre ene a

0 1
  C       21.095     225.237     -47.838
  O       20.227     226.298     -47.490
  H       20.638     224.659     -48.646
  H       21.260     224.574     -46.982
  H       22.051     225.633     -48.190
  P       20.587     227.207     -46.221
  C       20.510     226.931     -43.658
  O       20.233     226.333     -44.921
  C       21.271     225.958     -42.754
  O       20.507     224.724     -42.656
  C       22.673     225.608     -43.265
  O       23.547     225.491     -42.140
  C       22.465     224.262     -43.925
  O       23.669     223.523     -43.994
  C       21.368     223.639     -43.055
  N       20.640     222.598     -43.780
  C       20.990     221.272     -43.486
  O       21.856     221.030     -42.646
  N       20.398     220.259     -44.198
  C       19.572     220.541     -45.159
  N       19.054     219.491     -45.849
  C       19.196     221.924     -45.518
  C       19.760     222.893     -44.796
  O       20.017     228.586     -46.217
  O       22.187     227.236     -46.214
  H       24.053     223.446     -43.096
  H       22.511     227.996     -46.734
  H       18.510     222.108     -46.332
  H       19.555     223.940     -45.000
  H       21.799     223.201     -42.142
  H       22.094     224.403     -44.950
  H       23.066     226.353     -43.969
  H       21.314     226.385     -41.744
  H       19.361     218.560     -45.579
  H       19.552     227.192     -43.194
  H       18.436     219.587     -46.642
  H       21.093     227.844     -43.802
  P       24.506     226.708     -41.713
  C       26.940     227.452     -42.005
  O       25.971     226.464     -42.332
  O       24.494     227.035     -40.255
  O       23.950     227.949     -42.568
  H       24.111     228.777     -42.075
  H       27.874     227.200     -42.462
  H       27.062     227.494     -40.943
  H       26.613     228.405     -42.365

 6  7  8  9  10  11  12  13  14  15  16  26  30  31  32  33  35 0
 6-311+G(2d,p)
 ****
 37  38 0
 6-311+G(2d,p)
 ****
 1  2  3  4  5  17  18  19  20  21  22  23  24  25 0
 3-21G
 ****
 27  28  29  34  36  39  40  41  42  43  44  45  46 0
 3-21G
 ****


