%nproc=1
%NoSave
%Mem=1900MB
#P OB98/GEN NMR

erre ene a

0 1
  C       80.301    -326.448     156.557
  O       79.857    -327.085     157.755
  P       78.309    -327.448     157.930
  C       77.088    -328.460     155.885
  O       77.948    -328.697     156.994
  C       76.360    -329.750     155.499
  O       77.277    -330.741     154.973
  C       75.694    -330.434     156.687
  O       74.576    -329.783     157.252
  C       75.493    -331.851     156.173
  O       74.310    -331.959     155.385
  C       76.751    -332.045     155.298
  N       77.764    -332.881     155.943
  C       77.841    -334.200     155.504
  O       77.085    -334.674     154.658
  N       78.800    -334.972     156.101
  C       79.644    -334.575     157.096
  O       80.470    -335.318     157.614
  C       79.501    -333.179     157.536
  C       78.583    -332.407     156.949
  O       77.361    -326.299     157.850
  O       78.263    -328.100     159.400
  H       73.550    -331.963     155.996
  H       77.457    -327.775     159.846
  H       78.874    -335.928     155.791
  H       80.152    -332.829     158.326
  H       78.462    -331.374     157.258
  H       76.484    -332.522     154.344
  H       75.394    -332.566     156.996
  H       76.436    -330.497     157.498
  H       75.639    -329.521     154.715
  H       77.670    -328.085     155.041
  H       76.380    -327.667     156.148
  P       74.371    -329.592     158.830
  C       75.379    -328.072     160.671
  O       75.517    -328.613     159.376
  O       74.074    -330.814     159.635
  O       73.079    -328.633     158.866
  H       72.557    -328.850     159.661
  H       76.237    -327.421     160.869
  H       75.364    -328.867     161.421
  H       74.465    -327.475     160.741
  H       81.357    -326.281     156.612
  H       79.797    -325.511     156.444
  H       80.082    -327.074     155.718

 3  4  5  6  7  8  9  10  11  12  13  23  28  29  30  31  32 0
 6-311+G(2d,p)
 ****
 33  34 0
 6-311+G(2d,p)
 ****
 1  2  14  15  16  17  18  19  20  21  22  24  25  26  27 0
 3-21G
 ****
 35  36  37  38  39  40  41  42  43  44  45 0
 3-21G
 ****


