%nproc=1
%NoSave
%Mem=1900MB
#P OB98/GEN NMR

erre ene a

0 1
  C      592.888      96.697     481.798
  O      592.720      96.407     483.190
  P      592.130      94.962     483.577
  C      594.395      94.019     484.483
  O      593.037      94.346     484.754
  C      595.271      94.310     485.694
  O      595.488      95.725     485.849
  C      594.640      93.858     487.005
  O      594.779      92.463     487.173
  C      595.417      94.680     488.028
  O      596.593      94.000     488.489
  C      595.801      95.960     487.235
  N      595.117      97.156     487.729
  C      595.843      97.930     488.653
  O      596.970      97.567     489.009
  N      595.250      99.054     489.155
  C      594.034      99.380     488.798
  N      593.511     100.505     489.335
  C      593.239      98.576     487.856
  C      593.835      97.480     487.365
  O      592.513      94.066     482.304
  O      590.656      94.961     483.847
  H      597.090      94.652     489.019
  H      591.826      93.384     482.161
  H      592.237      98.872     487.584
  H      593.319      96.834     486.662
  H      596.876      96.133     487.296
  H      594.807      94.893     488.915
  H      593.580      94.148     487.028
  H      596.254      93.817     485.551
  H      594.093     101.039     489.990
  H      594.752      94.586     483.608
  H      592.588     100.840     489.137
  H      594.456      92.959     484.190
  P      593.476      91.625     487.556
  C      594.918      89.518     487.237
  O      594.032      90.204     488.095
  O      592.893      91.217     486.126
  O      592.441      92.301     488.410
  H      592.041      90.778     486.201
  H      595.378      88.691     487.795
  H      595.714      90.176     486.887
  H      594.378      89.101     486.390
  H      593.285      97.684     481.685
  H      591.941      96.635     481.304
  H      593.563      95.989     481.365

 3  4  5  6  7  8  9  10  11  12  13  21  23  27  28  29  30  32 0
 6-311+G(2d,p)
 ****
 34  35 0
 6-311+G(2d,p)
 ****
 1  2  14  15  16  17  18  19  20  22  24  25  26 0
 3-21G
 ****
 31  33  36  37  38  39  40  41  42  43  44  45  46 0
 3-21G
 ****


