%nproc=1
%NoSave
%Mem=1900MB
#P OB98/GEN NMR

erre ene a

0 1
  C       98.665      48.236      -5.732
  O       98.111      46.957      -5.476
  P       96.635      46.663      -6.035
  C       97.006      44.166      -6.681
  O       96.773      45.498      -7.132
  C       97.737      43.367      -7.759
  O       98.996      43.997      -8.077
  C       98.082      41.935      -7.367
  O       96.938      41.101      -7.416
  C       99.152      41.614      -8.407
  O       98.539      41.295      -9.665
  C       99.908      42.951      -8.516
  N      104.434      40.725      -7.603
  C      103.438      40.434      -8.468
  N      102.256      41.058      -8.642
  C      102.147      42.101      -7.797
  C      103.062      42.508      -6.841
  C      104.259      41.774      -6.763
  N      105.265      42.079      -5.865
  N      102.589      43.602      -6.145
  C      101.415      43.857      -6.678
  N      101.103      42.984      -7.689
  O       96.318      47.956      -6.916
  O       95.596      46.432      -4.983
  H       97.854      41.971      -9.837
  H       95.367      48.186      -6.879
  H      103.622      39.572      -9.118
  H      100.751      44.661      -6.375
  H      100.211      43.182      -9.545
  H       99.791      40.765      -8.125
  H       98.520      41.912      -6.365
  H       97.111      43.373      -8.669
  H       96.050      43.680      -6.468
  H      106.021      41.416      -5.773
  H      105.078      42.767      -5.155
  H       97.593      44.200      -5.758
  P       96.331      40.607      -6.009
  C       93.880      40.869      -6.741
  O       94.921      41.368      -5.916
  O       97.241      41.407      -4.970
  O       96.286      39.126      -5.838
  H       97.308      42.351      -5.192
  H       92.974      41.436      -6.538
  H       93.696      39.812      -6.520
  H       94.147      40.988      -7.795
  H       99.645      48.292      -5.306
  H       98.042      48.988      -5.295
  H       98.726      48.393      -6.789

 3  4  5  6  7  8  9  10  11  12  22  25  29  30  31  32 0
 6-311+G(2d,p)
 ****
 33  36  37 0
 6-311+G(2d,p)
 ****
 1  2  13  14  15  16  17  18  19  20  21  23  24  26 0
 3-21G
 ****
 27  28  34  35  38  39  40  41  42  43  44  45  46  47  48 0
 3-21G
 ****


