%nproc=1
%NoSave
%Mem=1900MB
#P OB98/GEN NMR

erre ene a

0 1
  C       10.727     154.078      -7.464
  O       12.035     154.529      -7.175
  H       10.021     154.880      -7.237
  H       10.482     153.207      -6.851
  H       10.644     153.821      -8.524
  P       13.215     153.451      -7.337
  C       12.865     153.704      -9.909
  O       12.958     152.828      -8.796
  C       13.903     153.325     -10.959
  O       15.241     153.505     -10.442
  C       13.842     151.869     -11.414
  O       12.793     151.610     -12.330
  C       15.207     151.742     -12.066
  O       15.198     152.413     -13.339
  C       16.090     152.491     -11.046
  N       16.649     151.610     -10.017
  C       17.882     151.986      -9.471
  O       18.452     153.006      -9.850
  N       18.461     151.173      -8.526
  C       17.856     150.092      -8.143
  N       18.480     149.327      -7.208
  C       16.553     149.665      -8.681
  C       16.012     150.460      -9.602
  O       12.768     152.262      -6.364
  O       14.599     153.956      -7.104
  H       14.970     153.344     -13.161
  H       13.355     151.478      -6.498
  H       16.093     148.748      -8.341
  H       15.054     150.211     -10.043
  H       16.915     153.010     -11.546
  H       15.502     150.711     -12.254
  H       13.793     151.183     -10.561
  H       13.786     154.011     -11.807
  H       19.401     149.615      -6.902
  H       13.041     154.726      -9.557
  H       18.165     148.399      -6.958
  H       11.866     153.647     -10.350
  P       12.192     150.121     -12.359
  C        9.934     150.996     -11.404
  O       11.010     150.076     -11.278
  O       13.347     149.248     -11.681
  O       11.832     149.614     -13.721
  H       13.391     148.358     -12.079
  H        9.234     150.837     -10.611
  H        9.447     150.848     -12.345
  H       10.312     151.996     -11.351

 6  7  8  9  10  11  12  13  14  15  16  26  30  31  32  33  35 0
 6-311+G(2d,p)
 ****
 37  38 0
 6-311+G(2d,p)
 ****
 1  2  3  4  5  17  18  19  20  21  22  23  24  25 0
 3-21G
 ****
 27  28  29  34  36  39  40  41  42  43  44  45  46 0
 3-21G
 ****


