%nproc=1
%NoSave
%Mem=1900MB
#P OB98/GEN NMR

erre ene a

0 1
  C     -179.547     130.774     136.631
  O     -179.257     131.768     137.593
  H     -178.635     130.477     136.107
  H     -179.961     129.899     137.139
  H     -180.283     131.147     135.912
  P     -178.604     133.131     137.051
  C     -176.213     132.438     137.816
  O     -177.073     132.763     136.730
  C     -174.933     133.260     137.707
  O     -174.128     133.083     138.894
  C     -174.041     132.857     136.538
  O     -174.452     133.441     135.311
  C     -172.706     133.420     136.993
  O     -172.684     134.844     136.794
  C     -172.729     133.092     138.494
  N     -168.344     130.585     139.343
  C     -168.605     131.888     139.102
  N     -169.803     132.479     138.907
  C     -170.798     131.582     138.992
  C     -170.684     130.222     139.239
  C     -169.382     129.719     139.416
  N     -169.107     128.388     139.629
  N     -171.929     129.623     139.232
  C     -172.775     130.606     139.002
  N     -172.136     131.804     138.819
  O     -178.487     134.045     138.359
  O     -179.326     133.802     135.931
  H     -172.785     134.999     135.834
  H     -178.311     134.973     138.112
  H     -167.739     132.542     139.057
  H     -173.851     130.503     138.948
  H     -172.214     133.848     139.100
  H     -171.861     133.004     136.439
  H     -173.959     131.767     136.450
  H     -175.209     134.321     137.646
  H     -175.971     131.372     137.771
  H     -168.141     128.103     139.595
  H     -169.857     127.717     139.538
  H     -176.721     132.655     138.760
  P     -174.354     132.535     133.989
  C     -172.468     133.964     132.917
  O     -172.854     132.699     133.437
  O     -175.229     133.354     132.928
  O     -174.835     131.130     134.159
  H     -175.665     132.750     132.298
  H     -171.450     133.920     132.590
  H     -172.566     134.708     133.680
  H     -173.097     134.217     132.089

 6  7  8  9  10  11  12  13  14  15  25  28  32  33  34  35 0
 6-311+G(2d,p)
 ****
 36  39  40 0
 6-311+G(2d,p)
 ****
 1  2  3  4  5  16  17  18  19  20  21  22  23  24 0
 3-21G
 ****
 26  27  29  30  31  37  38  41  42  43  44  45  46  47 0
 3-21G
 ****
 48 0
 3-21G
 ****


