%nproc=1
%NoSave
%Mem=1900MB
#P OB98/GEN NMR

erre ene a

0 1
  C      -12.368      -1.066     184.479
  O      -11.828      -0.550     185.678
  H      -13.225      -0.452     184.189
  H      -12.712      -2.093     184.630
  H      -11.628      -1.035     183.674
  P      -10.476      -1.186     186.255
  C       -7.976      -1.082     185.633
  O       -9.311      -0.826     185.213
  C       -7.124      -1.502     184.438
  O       -7.522      -2.810     183.974
  C       -7.256      -0.576     183.233
  O       -6.538       0.625     183.439
  C       -6.715      -1.475     182.132
  O       -5.280      -1.502     182.146
  C       -7.288      -2.852     182.548
  N       -8.509      -3.201     181.822
  C       -8.340      -3.942     180.656
  O       -7.239      -4.292     180.233
  N       -9.486      -4.230     179.961
  C      -10.740      -3.780     180.266
  O      -11.694      -3.876     179.503
  C      -10.867      -3.069     181.547
  C       -9.761      -2.802     182.246
  O      -10.552      -2.625     186.645
  O      -10.128      -0.256     187.512
  H      -10.399      -0.710     188.334
  H       -5.004      -2.027     181.368
  H       -9.368      -4.725     179.087
  H      -11.856      -2.751     181.857
  H       -9.830      -2.252     183.179
  H       -6.546      -3.643     182.371
  H       -7.020      -1.144     181.138
  H       -8.314      -0.367     183.031
  H       -6.077      -1.564     184.768
  H       -7.991      -1.893     186.371
  H       -7.568      -0.181     186.106
  P       -6.823       1.924     182.551
  C       -8.732       3.618     182.325
  O       -8.377       2.294     182.695
  O       -6.334       1.847     181.141
  O       -6.095       3.114     183.343
  H       -5.497       3.584     182.729
  H       -9.785       3.756     182.459
  H       -8.479       3.781     181.298
  H       -8.200       4.315     182.939

 6  7  8  9  10  11  12  13  14  15  16  27  31  32  33  34  35 0
 6-311+G(2d,p)
 ****
 36  37 0
 6-311+G(2d,p)
 ****
 1  2  3  4  5  17  18  19  20  21  22  23  24  25 0
 3-21G
 ****
 26  28  29  30  38  39  40  41  42  43  44  45 0
 3-21G
 ****


