%nproc=1
%NoSave
%Mem=1900MB
#P OB98/GEN NMR

erre ene a

0 1
  C      254.502     419.987     426.703
  O      253.101     419.699     426.813
  P      252.499     418.207     426.752
  C      250.223     418.538     425.568
  O      250.890     418.319     426.799
  C      248.970     419.394     425.780
  O      249.331     420.694     426.294
  C      248.163     419.694     424.520
  O      247.438     418.574     424.058
  C      247.286     420.853     424.998
  O      246.118     420.387     425.675
  C      248.220     421.581     425.999
  N      248.695     422.873     425.520
  C      247.773     423.931     425.575
  O      246.615     423.738     425.949
  N      248.197     425.177     425.196
  C      249.392     425.327     424.695
  N      249.754     426.598     424.355
  C      250.331     424.227     424.486
  C      249.918     423.029     424.920
  O      253.066     417.282     427.783
  O      252.806     417.679     425.267
  H      252.866     416.706     425.277
  H      246.402     419.637     426.240
  H      251.292     424.383     424.029
  H      250.558     422.149     424.814
  H      247.702     421.721     426.963
  H      246.954     421.491     424.168
  H      248.844     420.054     423.736
  H      248.333     418.893     426.521
  H      249.091     427.345     424.522
  H      249.922     417.568     425.154
  H      250.666     426.833     423.980
  H      250.910     419.016     424.864
  P      247.382     418.345     422.472
  C      244.853     417.814     422.177
  O      246.188     417.337     422.159
  O      248.708     417.494     422.160
  O      247.352     419.610     421.666
  H      249.106     417.795     421.320
  H      244.245     417.207     421.501
  H      244.807     418.864     421.846
  H      244.456     417.738     423.187
  H      254.655     421.044     426.772
  H      254.866     419.635     425.760
  H      255.030     419.497     427.495

 3  4  5  6  7  8  9  10  11  12  13  24  27  28  29  30  32 0
 6-311+G(2d,p)
 ****
 34  35 0
 6-311+G(2d,p)
 ****
 1  2  14  15  16  17  18  19  20  21  22  23  25  26 0
 3-21G
 ****
 31  33  36  37  38  39  40  41  42  43  44  45  46 0
 3-21G
 ****


