%nproc=1
%NoSave
%Mem=1900MB
#P OB98/GEN NMR

erre ene a

0 1
  C     -355.012      63.364     119.073
  O     -355.181      62.432     120.119
  H     -355.481      62.970     118.166
  H     -353.948      63.532     118.870
  H     -355.497      64.312     119.333
  P     -354.445      62.691     121.518
  C     -353.707      60.262     121.932
  O     -354.552      61.325     122.353
  C     -354.319      58.904     122.297
  O     -354.256      58.741     123.739
  C     -355.786      58.758     121.870
  O     -356.000      57.409     121.440
  C     -356.536      59.034     123.153
  O     -357.831      58.455     123.141
  C     -355.588      58.476     124.220
  N     -355.829      59.082     125.521
  C     -356.293      58.225     126.534
  O     -356.469      57.025     126.299
  N     -356.625      58.750     127.754
  C     -356.550      60.036     127.942
  N     -356.922      60.502     129.166
  C     -356.089      60.980     126.905
  C     -355.745      60.441     125.737
  O     -354.869      63.916     122.264
  O     -352.891      62.756     121.118
  H     -358.356      58.826     123.893
  H     -352.633      63.679     120.919
  H     -356.052      62.042     127.109
  H     -355.408      61.056     124.903
  H     -355.700      57.386     124.307
  H     -356.661      60.116     123.287
  H     -356.069      59.452     121.066
  H     -353.701      58.112     121.860
  H     -357.264      59.815     129.844
  H     -352.738      60.378     122.441
  H     -356.951      61.477     129.420
  H     -353.543      60.319     120.853
  P     -356.720      57.103     120.033
  C     -358.667      55.590     120.695
  O     -357.381      55.636     120.094
  O     -355.866      57.349     118.828
  O     -357.992      58.085     120.040
  H     -358.205      58.332     119.119
  H     -359.026      54.582     120.692
  H     -359.341      56.211     120.143
  H     -358.602      55.943     121.703

 6  7  8  9  10  11  12  13  14  15  16  26  30  31  32  33  35 0
 6-311+G(2d,p)
 ****
 37  38 0
 6-311+G(2d,p)
 ****
 1  2  3  4  5  17  18  19  20  21  22  23  24  25 0
 3-21G
 ****
 27  28  29  34  36  39  40  41  42  43  44  45  46 0
 3-21G
 ****


