%nproc=1
%NoSave
%Mem=1900MB
#P OB98/GEN NMR

erre ene a

0 1
  C       -2.187      56.009    -188.601
  O       -2.388      54.626    -188.363
  P       -3.902      54.106    -188.228
  C       -3.625      53.747    -185.636
  O       -4.321      54.374    -186.703
  C       -4.621      53.141    -184.643
  O       -5.431      54.188    -184.060
  C       -5.615      52.162    -185.252
  O       -5.021      50.892    -185.494
  C       -6.713      52.157    -184.200
  O       -6.353      51.305    -183.101
  C       -6.723      53.633    -183.745
  N       -7.796      54.419    -184.347
  C       -8.865      54.738    -183.514
  O       -8.929      54.397    -182.334
  N       -9.882      55.457    -184.098
  C       -9.960      55.820    -185.410
  O      -10.910      56.424    -185.886
  C       -8.817      55.425    -186.248
  C       -7.807      54.755    -185.689
  O       -3.676      52.522    -188.317
  O       -4.815      54.679    -189.261
  H       -2.790      52.263    -188.009
  H       -5.591      51.731    -182.657
  H      -10.658      55.724    -183.506
  H       -8.846      55.688    -187.299
  H       -6.962      54.443    -186.291
  H       -6.823      53.692    -182.653
  H       -7.675      51.802    -184.589
  H       -6.007      52.566    -186.191
  H       -4.054      52.661    -183.833
  H       -3.006      54.488    -185.127
  H       -2.973      52.968    -186.040
  P       -5.360      50.201    -186.906
  C       -7.527      49.347    -185.716
  O       -6.927      49.866    -186.882
  O       -4.646      48.776    -186.731
  O       -4.889      50.982    -188.088
  H       -4.786      48.392    -185.847
  H       -8.602      49.526    -185.766
  H       -7.133      49.827    -184.815
  H       -7.347      48.273    -185.661
  H       -1.138      56.211    -188.668
  H       -2.608      56.574    -187.796
  H       -2.663      56.286    -189.519

 3  4  5  6  7  8  9  10  11  12  13  24  28  29  30  31  32 0
 6-311+G(2d,p)
 ****
 33  34 0
 6-311+G(2d,p)
 ****
 1  2  14  15  16  17  18  19  20  21  22  23  25  26  27 0
 3-21G
 ****
 35  36  37  38  39  40  41  42  43  44  45 0
 3-21G
 ****


