%nproc=1
%NoSave
%Mem=1900MB
#P OB98/GEN NMR

erre ene a

0 1
  C     -118.436    -216.132     124.442
  O     -119.004    -217.421     124.537
  H     -117.404    -216.176     124.800
  H     -118.996    -215.437     125.076
  H     -118.435    -215.770     123.411
  P     -120.314    -217.750     123.683
  C     -122.142    -216.847     125.268
  O     -121.438    -216.660     124.047
  C     -123.638    -216.572     125.109
  O     -123.838    -215.215     124.659
  C     -124.294    -217.482     124.066
  O     -124.741    -218.730     124.571
  C     -125.470    -216.629     123.596
  O     -126.630    -216.841     124.419
  C     -124.953    -215.192     123.752
  N     -126.422    -212.743     119.511
  C     -127.204    -213.345     120.484
  N     -128.537    -213.318     120.266
  N     -126.712    -213.929     121.541
  C     -125.360    -213.963     121.571
  C     -124.480    -213.422     120.658
  C     -125.036    -212.716     119.518
  O     -124.384    -212.151     118.642
  N     -123.175    -213.689     120.990
  C     -123.270    -214.469     122.051
  N     -124.573    -214.594     122.486
  O     -120.888    -219.080     124.377
  O     -120.089    -217.976     122.217
  H     -126.422    -216.520     125.317
  H     -121.338    -219.628     123.708
  H     -126.859    -212.286     118.729
  H     -122.436    -214.921     122.570
  H     -125.712    -214.542     124.202
  H     -125.758    -216.889     122.572
  H     -128.963    -212.960     119.428
  H     -123.624    -217.639     123.212
  H     -129.134    -213.910     120.852
  H     -124.132    -216.662     126.086
  H     -121.709    -216.147     125.986
  H     -121.976    -217.858     125.649
  P     -124.773    -220.028     123.641
  C     -127.128    -219.440     122.636
  O     -125.766    -219.756     122.426
  O     -125.564    -221.091     124.532
  O     -123.439    -220.543     123.211
  H     -124.945    -221.697     124.985
  H     -127.611    -219.297     121.692
  H     -127.201    -218.542     123.213
  H     -127.603    -220.242     123.162

 6  7  8  9  10  11  12  13  14  15  26  29  33  34 0
 6-311+G(2d,p)
 ****
 36  38  39  40  41 0
 6-311+G(2d,p)
 ****
 1  2  3  4  5  16  17  18  19  20  21  22  23  24  25 0
 3-21G
 ****
 27  28  30  31  32  35  37  42  43  44  45  46  47 0
 3-21G
 ****
 48  49 0
 3-21G
 ****


