%nproc=1
%NoSave
%Mem=1900MB
#P OB98/GEN NMR

erre ene a

0 1
  C      420.090      53.637     550.390
  O      421.015      52.561     550.403
  P      420.741      51.344     551.412
  C      421.081      52.645     553.657
  O      421.558      51.655     552.753
  C      421.976      52.686     554.898
  O      421.884      51.449     555.633
  C      423.454      52.860     554.582
  O      423.767      54.210     554.274
  C      424.107      52.365     555.861
  O      424.146      53.403     556.853
  C      423.150      51.231     556.280
  N      423.689      49.909     556.000
  C      424.898      49.593     556.610
  O      425.501      50.381     557.336
  N      425.401      48.351     556.342
  C      424.868      47.431     555.490
  O      425.398      46.360     555.239
  C      423.605      47.827     554.841
  C      423.083      49.025     555.122
  O      421.519      50.115     550.761
  O      419.296      51.039     551.640
  H      424.847      53.162     557.492
  H      421.026      49.285     550.913
  H      426.267      48.098     556.798
  H      423.148      47.123     554.153
  H      422.157      49.348     554.642
  H      422.949      51.291     557.359
  H      425.142      52.040     555.696
  H      423.741      52.205     553.745
  H      421.627      53.501     555.547
  H      420.056      52.399     553.947
  H      421.078      53.614     553.154
  P      424.094      54.552     552.734
  C      425.904      52.712     552.315
  O      425.611      54.078     552.522
  O      424.158      56.160     552.793
  O      423.076      54.013     551.782
  H      424.500      56.481     553.653
  H      425.110      52.210     551.743
  H      426.009      52.224     553.282
  H      426.836      52.629     551.769
  H      420.402      54.367     549.673
  H      420.050      54.085     551.361
  H      419.120      53.270     550.126

 3  4  5  6  7  8  9  10  11  12  13  23  28  29  30  31  32 0
 6-311+G(2d,p)
 ****
 33  34 0
 6-311+G(2d,p)
 ****
 1  2  14  15  16  17  18  19  20  21  22  24  25  26 0
 3-21G
 ****
 27  35  36  37  38  39  40  41  42  43  44  45 0
 3-21G
 ****


