%nproc=1
%NoSave
%Mem=1900MB
#P OB98/GEN NMR

erre ene a

0 1
  C     -113.302      61.323     439.077
  O     -113.896      61.957     437.968
  H     -112.341      61.793     439.321
  H     -113.968      61.419     439.939
  H     -113.149      60.260     438.864
  P     -113.017      62.018     436.624
  C     -115.248      61.893     435.311
  O     -113.991      62.543     435.463
  C     -116.362      62.926     435.178
  O     -116.430      63.748     436.364
  C     -116.191      63.904     434.024
  O     -116.568      63.328     432.777
  C     -117.151      65.011     434.444
  O     -118.498      64.640     434.101
  C     -116.983      65.030     435.970
  N     -116.613      70.023     437.144
  C     -117.653      69.280     436.687
  N     -117.673      67.962     436.385
  C     -116.477      67.398     436.622
  C     -115.332      68.025     437.091
  C     -115.422      69.405     437.349
  N     -114.364      70.156     437.804
  N     -114.293      67.129     437.214
  C     -114.799      65.975     436.830
  N     -116.112      66.088     436.457
  O     -112.792      60.475     436.255
  O     -111.715      62.744     436.742
  H     -119.073      65.384     434.374
  H     -111.904      60.364     435.865
  H     -118.581      69.808     436.537
  H     -114.252      65.033     436.819
  H     -117.954      65.126     436.479
  H     -116.942      65.972     433.961
  H     -115.171      64.306     433.983
  H     -117.317      62.387     435.093
  H     -115.442      61.268     436.193
  H     -114.544      71.080     438.157
  H     -113.478      69.684     437.963
  H     -115.217      61.255     434.423
  P     -116.083      64.077     431.440
  C     -116.205      62.000     429.883
  O     -116.759      63.264     430.231
  O     -114.535      63.677     431.337
  O     -116.276      65.554     431.438
  H     -114.049      64.354     430.827
  H     -116.756      61.582     429.067
  H     -116.260      61.342     430.725
  H     -115.182      62.126     429.595

 6  7  8  9  10  11  12  13  14  15  25  28  32  33  34  35 0
 6-311+G(2d,p)
 ****
 36  39  40 0
 6-311+G(2d,p)
 ****
 1  2  3  4  5  16  17  18  19  20  21  22  23  24 0
 3-21G
 ****
 26  27  29  30  31  37  38  41  42  43  44  45  46  47  48 0
 3-21G
 ****


