%nproc=1
%NoSave
%Mem=1900MB
#P OB98/GEN NMR

erre ene a

0 1
  C       82.131    -274.122     311.324
  O       83.332    -274.694     310.842
  H       81.287    -274.667     310.895
  H       82.066    -273.074     311.020
  H       82.084    -274.197     312.414
  P       84.699    -274.047     311.375
  C       86.274    -274.038     309.305
  O       85.878    -274.696     310.501
  C       86.617    -275.071     308.238
  O       87.756    -275.854     308.668
  C       85.510    -276.080     307.976
  O       84.481    -275.551     307.156
  C       86.288    -277.212     307.324
  O       86.482    -276.975     305.922
  C       87.628    -277.162     308.063
  N       87.001    -282.142     309.000
  C       86.909    -281.420     307.864
  N       87.102    -280.094     307.694
  C       87.456    -279.517     308.857
  C       87.595    -280.124     310.092
  C       87.355    -281.506     310.144
  N       87.424    -282.240     311.304
  N       87.929    -279.193     311.055
  C       88.001    -278.047     310.414
  N       87.728    -278.192     309.080
  O       84.880    -274.716     312.818
  O       84.708    -272.556     311.448
  H       87.173    -277.602     305.634
  H       84.585    -274.090     313.505
  H       86.629    -281.976     306.974
  H       88.240    -277.090     310.863
  H       88.483    -277.294     307.386
  H       85.760    -278.159     307.431
  H       85.094    -276.441     308.928
  H       86.894    -274.544     307.315
  H       87.156    -273.418     309.505
  H       85.458    -273.392     308.966
  H       87.171    -283.213     311.281
  H       87.573    -281.755     312.182
  P       83.040    -275.325     307.815
  C       81.804    -276.362     305.771
  O       81.979    -275.239     306.622
  O       83.108    -273.823     308.375
  O       82.689    -276.301     308.889
  H       82.603    -273.758     309.208
  H       81.063    -276.138     305.032
  H       81.486    -277.203     306.351
  H       82.731    -276.592     305.288

 6  7  8  9  10  11  12  13  14  15  25  28  32  33  34  35 0
 6-311+G(2d,p)
 ****
 36  37  40 0
 6-311+G(2d,p)
 ****
 1  2  3  4  5  16  17  18  19  20  21  22  23  24 0
 3-21G
 ****
 26  27  29  30  31  38  39 41  42  43  44  45  46  47  48 0
 3-21G
 ****


