%nproc=1
%NoSave
%Mem=1900MB
#P OB98/GEN NMR

erre ene a

0 1
  C     -184.758     203.543      82.912
  O     -186.141     203.714      82.601
  P     -187.155     204.152      83.764
  C     -187.829     201.777      84.502
  O     -187.195     202.992      84.875
  C     -188.434     201.078      85.732
  O     -189.291     199.971      85.320
  C     -187.361     200.493      86.662
  O     -187.794     200.553      88.031
  C     -187.320     199.034      86.253
  O     -186.755     198.214      87.278
  C     -188.796     198.777      85.960
  N     -189.754     193.743      85.877
  C     -189.673     194.627      86.898
  N     -189.438     195.956      86.844
  C     -189.292     196.360      85.570
  C     -189.363     195.578      84.424
  C     -189.597     194.205      84.612
  N     -189.650     193.301      83.575
  N     -189.153     196.344      83.292
  C     -188.917     197.555      83.752
  N     -189.023     197.625      85.116
  O     -188.491     204.636      83.309
  O     -186.348     205.317      84.516
  H     -187.417     198.137      87.985
  H     -186.964     206.043      84.732
  H     -189.811     194.208      87.894
  H     -188.654     198.412      83.143
  H     -189.372     198.633      86.880
  H     -186.707     198.919      85.346
  H     -186.380     200.974      86.580
  H     -189.066     201.789      86.273
  H     -187.107     201.117      84.015
  H     -189.708     192.324      83.815
  H     -189.384     193.608      82.651
  H     -188.597     201.988      83.747
  P     -187.065     201.658      88.953
  C     -184.729     200.508      89.182
  O     -185.503     201.542      88.620
  O     -187.443     201.571      90.397
  O     -187.521     203.022      88.251
  H     -187.385     203.055      87.286
  H     -183.732     200.527      88.737
  H     -185.179     199.529      88.987
  H     -184.628     200.657      90.263
  H     -184.227     203.252      82.030
  H     -184.652     202.784      83.659
  H     -184.359     204.465      83.281

 3  4  5  6  7  8  9  10  11  12  22  25  29  30  31  32 0
 6-311+G(2d,p)
 ****
 33  36  37 0
 6-311+G(2d,p)
 ****
 1  2  13  14  15  16  17  18  19  20  21  23  24  26 0
 3-21G
 ****
 27  28  34  35  38  39  40  41  42  43  44  45  46  47  48 0
 3-21G
 ****


