%nproc=1
%NoSave
%Mem=1900MB
#P OB98/GEN NMR

erre ene a

0 1
  C     -246.829     -66.557    -373.111
  O     -246.545     -67.869    -372.671
  H     -247.912     -66.406    -373.090
  H     -246.476     -66.417    -374.136
  H     -246.357     -65.826    -372.451
  P     -245.005     -68.319    -372.681
  C     -243.249     -68.761    -374.545
  O     -244.620     -68.606    -374.212
  C     -243.113     -69.673    -375.759
  O     -243.497     -71.023    -375.404
  C     -244.014     -69.291    -376.927
  O     -243.496     -68.201    -377.672
  C     -244.026     -70.591    -377.719
  O     -242.878     -70.696    -378.575
  C     -243.986     -71.660    -376.604
  N     -245.286     -72.290    -376.398
  C     -245.598     -73.330    -377.270
  O     -244.840     -73.710    -378.162
  N     -246.829     -73.899    -377.104
  C     -247.778     -73.512    -376.201
  O     -248.891     -74.018    -376.153
  C     -247.387     -72.415    -375.299
  C     -246.181     -71.857    -375.441
  O     -245.050     -69.778    -372.019
  O     -244.073     -67.400    -371.963
  H     -244.745     -69.731    -371.095
  H     -242.117     -70.874    -377.988
  H     -247.076     -74.649    -377.733
  H     -248.112     -72.089    -374.562
  H     -245.882     -71.034    -374.798
  H     -243.264     -72.448    -376.856
  H     -244.907     -70.664    -378.358
  H     -245.031     -69.085    -376.572
  H     -242.059     -69.687    -376.071
  H     -242.716     -69.208    -373.701
  H     -242.820     -67.773    -374.750
  P     -244.528     -67.169    -378.337
  C     -245.317     -66.768    -380.812
  O     -244.711     -67.629    -379.862
  O     -243.630     -65.851    -378.427
  O     -245.801     -67.016    -377.571
  H     -242.696     -66.039    -378.625
  H     -245.347     -67.253    -381.765
  H     -244.748     -65.865    -380.889
  H     -246.313     -66.536    -380.499

 6  7  8  9  10  11  12  13  14  15  16  27  31  32  33  34  35 0
 6-311+G(2d,p)
 ****
 36  37 0
 6-311+G(2d,p)
 ****
 1  2  3  4  5  17  18  19  20  21  22  23  24  25 0
 3-21G
 ****
 26  28  29  30  38  39  40  41  42  43  44  45 0
 3-21G
 ****


