%nproc=1
%NoSave
%Mem=1900MB
#P OB98/GEN NMR

erre ene a

0 1
  C     -115.267     -99.723    -208.822
  O     -116.144     -98.728    -208.336
  H     -115.807    -100.673    -208.874
  H     -114.417     -99.840    -208.143
  H     -114.911     -99.463    -209.822
  P     -115.554     -97.240    -208.222
  C     -116.422     -96.655    -210.603
  O     -115.304     -96.740    -209.726
  C     -116.073     -95.776    -211.799
  O     -117.238     -95.627    -212.643
  C     -115.648     -94.359    -211.433
  O     -114.300     -94.304    -211.001
  C     -115.894     -93.627    -212.746
  O     -114.794     -93.783    -213.651
  C     -117.133     -94.344    -213.299
  N     -120.242     -90.884    -215.381
  C     -119.141     -91.509    -215.853
  N     -118.377     -92.437    -215.238
  C     -118.859     -92.710    -214.015
  C     -119.964     -92.148    -213.398
  C     -120.678     -91.191    -214.137
  N     -121.777     -90.529    -213.644
  N     -120.113     -92.651    -212.121
  C     -119.123     -93.508    -211.973
  N     -118.344     -93.579    -213.093
  O     -114.077     -97.485    -207.654
  O     -116.339     -96.308    -207.362
  H     -114.817     -94.708    -213.962
  H     -114.081     -97.394    -206.682
  H     -118.831     -91.223    -216.855
  H     -118.926     -94.088    -211.079
  H     -117.051     -94.537    -214.376
  H     -116.032     -92.557    -212.585
  H     -116.317     -93.948    -210.668
  H     -115.291     -96.277    -212.385
  H     -117.269     -96.214    -210.066
  H     -116.693     -97.664    -210.930
  H     -122.225     -89.838    -214.222
  H     -122.045     -90.674    -212.680
  P     -113.830     -93.055    -210.116
  C     -115.281     -93.752    -208.073
  O     -114.985     -92.758    -209.041
  O     -113.934     -91.825    -211.133
  O     -112.464     -93.183    -209.532
  H     -113.053     -91.600    -211.487
  H     -116.067     -93.406    -207.435
  H     -114.408     -93.951    -207.488
  H     -115.592     -94.649    -208.567

 6  7  8  9  10  11  12  13  14  15  25  28  32  33  34  35 0
 6-311+G(2d,p)
 ****
 36  37  40 0
 6-311+G(2d,p)
 ****
 1  2  3  4  5  16  17  18  19  20  21  22  23  24 0
 3-21G
 ****
 26  27  29  30  31  38  39 41  42  43  44  45  46  47  48 0
 3-21G
 ****


