%nproc=1
%NoSave
%Mem=1900MB
#P OB98/GEN NMR

erre ene a

0 1
  C      104.090     -91.989     -50.841
  O      104.727     -92.653     -49.765
  P      104.441     -92.143     -48.274
  C      106.831     -91.129     -48.124
  O      105.435     -90.918     -47.980
  C      107.570     -90.682     -46.860
  O      108.980     -91.041     -46.973
  C      107.503     -89.170     -46.597
  O      107.480     -88.979     -45.176
  C      108.828     -88.683     -47.157
  O      109.212     -87.412     -46.654
  C      109.740     -89.839     -46.735
  N      111.012     -89.852     -47.457
  C      112.119     -89.314     -46.809
  O      112.088     -88.831     -45.676
  N      113.280     -89.285     -47.535
  C      113.418     -89.650     -48.842
  O      114.458     -89.491     -49.472
  C      112.215     -90.212     -49.475
  C      111.086     -90.286     -48.767
  O      105.018     -93.327     -47.365
  O      103.007     -91.859     -47.977
  H      108.557     -86.762     -46.968
  H      104.293     -93.900     -47.052
  H      114.095     -88.908     -47.078
  H      112.296     -90.531     -50.507
  H      110.178     -90.678     -49.215
  H      109.935     -89.792     -45.657
  H      108.756     -88.607     -48.248
  H      106.641     -88.682     -47.064
  H      107.162     -91.235     -46.004
  H      107.196     -90.550     -48.975
  H      107.024     -92.187     -48.330
  P      106.291     -88.093     -44.557
  C      107.684     -86.041     -43.727
  O      106.755     -86.564     -44.654
  O      106.439     -88.442     -42.999
  O      104.944     -88.420     -45.116
  H      107.366     -88.447     -42.704
  H      108.416     -86.794     -43.424
  H      107.149     -85.682     -42.845
  H      108.210     -85.202     -44.189
  H      104.382     -92.445     -51.764
  H      104.378     -90.959     -50.845
  H      103.029     -92.062     -50.727

 3  4  5  6  7  8  9  10  11  12  13  23  28  29  30  31  32 0
 6-311+G(2d,p)
 ****
 33  34 0
 6-311+G(2d,p)
 ****
 1  2  14  15  16  17  18  19  20  21  22  24  25  26 0
 3-21G
 ****
 27  35  36  37  38  39  40  41  42  43  44  45 0
 3-21G
 ****


