%nproc=1
%NoSave
%Mem=1900MB
#P OB98/GEN NMR

erre ene a

0 1
  C      -12.782     662.593    -761.397
  O      -12.511     661.261    -761.765
  H      -13.101     663.147    -762.288
  H      -11.868     663.057    -760.997
  H      -13.583     662.651    -760.653
  P      -12.346     660.154    -760.612
  C      -14.568     658.914    -761.090
  O      -13.143     658.851    -761.092
  C      -15.160     658.010    -762.188
  O      -14.994     658.667    -763.483
  C      -14.406     656.669    -762.276
  O      -15.247     655.627    -762.771
  C      -13.316     656.958    -763.304
  O      -12.818     655.784    -763.939
  C      -14.046     657.917    -764.259
  N      -11.223     658.767    -768.425
  C      -11.845     657.606    -768.004
  N      -11.688     656.522    -768.816
  N      -12.525     657.499    -766.895
  C      -12.525     658.640    -766.154
  C      -11.930     659.841    -766.453
  C      -11.206     659.956    -767.701
  O      -10.627     660.950    -768.096
  N      -12.139     660.765    -765.444
  C      -12.861     660.118    -764.554
  N      -13.146     658.832    -764.943
  O      -13.276     660.702    -759.422
  O      -10.937     659.921    -760.143
  H      -13.588     655.249    -764.189
  H      -13.001     660.331    -758.573
  H      -10.734     658.801    -769.303
  H      -13.207     660.527    -763.611
  H      -14.597     657.352    -765.012
  H      -12.474     657.432    -762.791
  H      -11.020     656.515    -769.565
  H      -13.972     656.371    -761.322
  H      -11.870     655.607    -768.381
  H      -16.234     657.883    -762.030
  H      -14.834     659.959    -761.262
  H      -14.955     658.635    -760.105
  P      -14.704     654.123    -762.719
  C      -16.518     652.989    -761.147
  O      -15.908     653.112    -762.410
  O      -13.835     654.074    -761.369
  O      -13.895     653.706    -763.925
  H      -12.878     653.923    -761.579
  H      -17.292     652.252    -761.195
  H      -16.939     653.930    -760.861
  H      -15.787     652.691    -760.425

 6  7  8  9  10  11  12  13  14  15  26  29  33  34 0
 6-311+G(2d,p)
 ****
 36  38  39  40  41 0
 6-311+G(2d,p)
 ****
 1  2  3  4  5  16  17  18  19  20  21  22  23  24  25 0
 3-21G
 ****
 27  28  30  31  32  35  37  42  43  44  45  46  47 0
 3-21G
 ****
 48  49 0
 3-21G
 ****


