%nproc=1
%NoSave
%Mem=1900MB
#P OB98/GEN NMR

erre ene a

0 1
  C      234.840    -946.577     972.746
  O      234.169    -945.337     972.634
  P      234.471    -944.390     971.352
  C      232.607    -945.139     969.760
  O      233.089    -944.096     970.611
  C      231.282    -944.711     969.110
  O      230.161    -944.968     969.991
  C      231.218    -943.245     968.746
  O      231.999    -942.924     967.633
  C      229.690    -943.067     968.545
  O      229.328    -943.535     967.241
  C      229.127    -944.043     969.620
  N      228.618    -943.290     970.766
  C      227.257    -942.960     970.749
  O      226.551    -943.223     969.754
  N      226.713    -942.359     971.858
  C      227.469    -942.008     972.842
  N      226.888    -941.426     973.940
  C      228.950    -942.180     972.834
  C      229.428    -942.846     971.793
  O      235.586    -944.842     970.466
  O      234.816    -942.965     972.035
  H      235.642    -942.632     971.658
  H      229.691    -942.884     966.589
  H      229.547    -941.810     973.656
  H      230.497    -943.053     971.695
  H      228.315    -944.625     969.178
  H      229.372    -942.032     968.619
  H      231.519    -942.632     969.611
  H      231.147    -945.342     968.204
  H      225.868    -941.339     973.909
  H      232.437    -946.032     970.356
  H      227.341    -941.419     974.841
  H      233.347    -945.348     968.991
  P      232.682    -941.444     967.628
  C      235.099    -942.354     967.414
  O      234.055    -941.554     966.817
  O      233.130    -941.232     969.144
  O      231.761    -940.368     967.175
  H      232.983    -940.301     969.396
  H      235.818    -942.602     966.608
  H      234.706    -943.278     967.838
  H      235.623    -941.775     968.174
  H      234.528    -947.072     973.642
  H      235.896    -946.409     972.780
  H      234.603    -947.188     971.900

 3  4  5  6  7  8  9  10  11  12  13  24  27  28  29  30  32 0
 6-311+G(2d,p)
 ****
 34  35 0
 6-311+G(2d,p)
 ****
 1  2  14  15  16  17  18  19  20  21  22  23  25  26 0
 3-21G
 ****
 31  33  36  37  38  39  40  41  42  43  44  45  46 0
 3-21G
 ****


