%nproc=1
%NoSave
%Mem=1900MB
#P OB98/GEN NMR

erre ene a

0 1
  C      517.284    -384.616    -180.401
  O      516.538    -385.455    -181.282
  P      516.898    -387.010    -181.381
  C      518.587    -386.872    -183.335
  O      518.381    -387.179    -181.960
  C      519.893    -387.511    -183.823
  O      521.047    -386.900    -183.194
  C      519.995    -388.989    -183.477
  O      519.121    -389.867    -184.157
  C      521.487    -389.244    -183.604
  O      521.871    -389.487    -184.958
  C      522.085    -387.907    -183.105
  N      522.615    -387.996    -181.744
  C      523.796    -387.292    -181.506
  O      524.395    -386.670    -182.371
  N      524.281    -387.368    -180.228
  C      523.743    -388.084    -179.200
  O      524.236    -388.132    -178.078
  C      522.509    -388.826    -179.519
  C      522.014    -388.752    -180.759
  O      515.861    -387.874    -182.025
  O      517.079    -387.423    -179.837
  H      522.826    -389.676    -184.962
  H      516.667    -388.306    -179.714
  H      525.134    -386.858    -180.033
  H      522.053    -389.414    -178.731
  H      521.105    -389.293    -181.013
  H      522.892    -387.580    -183.760
  H      521.799    -390.123    -183.021
  H      519.746    -389.102    -182.409
  H      519.979    -387.346    -184.901
  H      518.620    -385.792    -183.472
  H      517.732    -387.232    -183.911
  P      517.746    -390.395    -183.538
  C      518.465    -392.397    -182.053
  O      518.050    -391.050    -182.103
  O      516.826    -391.141    -184.449
  O      517.035    -389.012    -183.122
  H      516.068    -389.113    -183.230
  H      518.607    -392.675    -180.999
  H      519.413    -392.518    -182.579
  H      517.700    -393.049    -182.484
  H      516.911    -383.615    -180.461
  H      518.316    -384.630    -180.684
  H      517.184    -384.974    -179.398

 3  4  5  6  7  8  9  10  11  12  13  23  28  29  30  31  32 0
 6-311+G(2d,p)
 ****
 33  34 0
 6-311+G(2d,p)
 ****
 1  2  14  15  16  17  18  19  20  21  22  24  25  26  27 0
 3-21G
 ****
 35  36  37  38  39  40  41  42  43  44  45 0
 3-21G
 ****


