%nproc=1
%NoSave
%Mem=1900MB
#P OB98/GEN NMR

erre ene a

0 1
  C     -449.483    -292.261     374.847
  O     -449.284    -290.900     374.525
  H     -449.752    -292.804     373.938
  H     -450.295    -292.372     375.573
  H     -448.562    -292.692     375.249
  P     -449.037    -289.851     375.709
  C     -450.770    -288.095     374.975
  O     -449.391    -288.402     375.117
  C     -450.964    -286.628     374.581
  O     -450.484    -285.787     375.667
  C     -450.207    -286.231     373.304
  O     -451.014    -285.307     372.572
  C     -448.972    -285.546     373.850
  O     -448.409    -284.654     372.907
  C     -449.498    -284.887     375.130
  N     -448.418    -284.625     376.078
  C     -447.682    -283.451     375.880
  O     -447.965    -282.694     374.946
  N     -446.601    -283.200     376.684
  C     -446.248    -284.069     377.581
  N     -445.150    -283.771     378.324
  C     -446.983    -285.329     377.813
  C     -448.042    -285.539     377.037
  O     -447.715    -289.939     376.401
  O     -450.246    -290.136     376.722
  H     -447.577    -284.274     373.277
  H     -449.981    -290.803     377.384
  H     -446.645    -286.022     378.570
  H     -448.637    -286.445     377.125
  H     -450.002    -283.938     374.901
  H     -448.211    -286.295     374.100
  H     -449.956    -287.090     372.672
  H     -452.035    -286.429     374.478
  H     -444.663    -282.904     378.110
  H     -451.260    -288.283     375.939
  H     -444.757    -284.387     379.021
  H     -451.221    -288.746     374.219
  P     -451.876    -285.798     371.310
  C     -451.236    -284.376     369.280
  O     -452.163    -284.537     370.350
  O     -453.088    -286.602     371.656
  O     -450.841    -286.678     370.456
  H     -451.330    -287.375     369.978
  H     -451.506    -283.518     368.700
  H     -451.254    -285.247     368.658
  H     -450.252    -284.242     369.678

 6  7  8  9  10  11  12  13  14  15  16  26  30  31  32  33  35 0
 6-311+G(2d,p)
 ****
 37  38 0
 6-311+G(2d,p)
 ****
 1  2  3  4  5  17  18  19  20  21  22  23  24  25 0
 3-21G
 ****
 27  28  29  34  36  39  40  41  42  43  44  45  46 0
 3-21G
 ****


