%nproc=1
%NoSave
%Mem=1900MB
#P OB98/GEN NMR

erre ene a

0 1
  C      -85.457      36.807     188.162
  O      -84.680      35.626     187.933
  P      -85.420      34.209     188.116
  C      -86.362      32.964     190.217
  O      -85.464      33.936     189.700
  C      -87.073      33.491     191.470
  O      -86.138      33.515     192.593
  C      -87.661      34.904     191.320
  O      -88.896      34.916     192.054
  C      -86.632      35.780     192.009
  O      -87.182      37.023     192.427
  C      -86.187      34.853     193.146
  N      -84.898      35.239     193.724
  C      -84.896      35.586     195.073
  O      -85.918      35.650     195.752
  N      -83.669      35.900     195.601
  C      -82.492      35.979     194.910
  O      -81.423      36.265     195.438
  C      -82.584      35.712     193.465
  C      -83.764      35.362     192.951
  O      -84.310      33.198     187.567
  O      -86.737      34.146     187.413
  H      -83.399      33.463     187.794
  H      -86.479      37.552     192.853
  H      -83.636      36.122     196.590
  H      -81.679      35.820     192.875
  H      -83.870      35.185     191.887
  H      -86.936      34.846     193.949
  H      -85.796      35.981     191.324
  H      -87.848      35.178     190.276
  H      -87.870      32.780     191.734
  H      -85.812      32.054     190.480
  H      -87.082      32.687     189.438
  P      -90.213      35.471     191.311
  C      -91.288      37.853     191.077
  O      -90.140      37.073     191.344
  O      -91.327      35.141     192.429
  O      -90.519      34.835     189.993
  H      -91.059      35.416     193.322
  H      -91.086      38.886     191.381
  H      -92.148      37.490     191.641
  H      -91.507      37.834     190.007
  H      -84.846      37.672     188.007
  H      -85.822      36.804     189.168
  H      -86.283      36.828     187.483

 3  4  5  6  7  8  9  10  11  12  13  24  28  29  30  31  32 0
 6-311+G(2d,p)
 ****
 33  34 0
 6-311+G(2d,p)
 ****
 1  2  14  15  16  17  18  19  20  21  22  23  25  26  27 0
 3-21G
 ****
 35  36  37  38  39  40  41  42  43  44  45 0
 3-21G
 ****


