%nproc=1
%NoSave
%Mem=1900MB
#P OB98/GEN NMR

erre ene a

0 1
  C      155.505      42.725      53.867
  O      155.815      41.503      54.505
  H      155.355      43.492      54.632
  H      154.582      42.624      53.288
  H      156.322      43.042      53.212
  P      156.263      40.254      53.606
  C      155.047      38.378      52.314
  O      154.925      39.619      52.997
  C      153.680      37.694      52.186
  O      153.287      37.187      53.501
  C      152.547      38.622      51.703
  O      151.611      37.807      50.983
  C      151.970      39.085      53.031
  O      150.738      39.742      52.888
  C      151.988      37.748      53.791
  N      151.776      37.841      55.231
  C      150.611      37.285      55.750
  O      149.747      36.716      55.080
  N      150.448      37.405      57.106
  C      151.323      37.994      57.973
  O      151.139      38.044      59.183
  C      152.531      38.571      57.363
  C      152.705      38.464      56.042
  O      157.186      39.281      54.262
  O      156.945      40.938      52.326
  H      157.917      40.893      52.409
  H      150.358      39.907      53.779
  H      149.611      37.004      57.501
  H      153.241      39.057      58.021
  H      153.591      38.872      55.566
  H      151.243      37.067      53.361
  H      152.643      39.807      53.501
  H      152.900      39.432      51.058
  H      153.782      36.821      51.530
  H      155.729      37.739      52.887
  H      155.472      38.555      51.321
  P      151.429      37.870      49.388
  C      150.011      39.255      47.720
  O      150.544      39.165      49.036
  O      150.907      36.602      48.788
  O      152.880      38.228      48.809
  H      152.962      37.886      47.900
  H      149.448      40.160      47.624
  H      149.373      38.416      47.536
  H      150.812      39.257      47.010

 6  7  8  9  10  11  12  13  14  15  16  27  31  32  33  34  35 0
 6-311+G(2d,p)
 ****
 36  37 0
 6-311+G(2d,p)
 ****
 1  2  3  4  5  17  18  19  20  21  22  23  24  25 0
 3-21G
 ****
 26  28  29  30  38  39  40  41  42  43  44  45 0
 3-21G
 ****


