%nproc=1
%NoSave
%Mem=1900MB
#P OB98/GEN NMR

erre ene a

0 1
  C     -173.360      25.565     168.833
  O     -173.980      24.327     169.110
  H     -172.366      25.569     169.287
  H     -173.943      26.384     169.263
  H     -173.252      25.715     167.754
  P     -175.368      23.979     168.388
  C     -177.824      24.656     168.790
  O     -176.457      25.011     168.953
  C     -178.699      25.903     168.872
  O     -178.203      26.919     167.974
  C     -180.152      25.670     168.471
  O     -180.861      25.006     169.500
  C     -180.602      27.097     168.199
  O     -180.912      27.778     169.426
  C     -179.340      27.698     167.537
  N     -179.417      27.737     166.078
  C     -180.405      28.551     165.532
  O     -181.206      29.185     166.215
  N     -180.450      28.598     164.162
  C     -179.679      27.863     163.312
  O     -179.796      27.903     162.089
  C     -178.676      26.993     163.944
  C     -178.592      26.972     165.276
  O     -175.782      22.545     168.431
  O     -175.145      24.481     166.882
  H     -180.073      27.858     169.920
  H     -174.934      23.721     166.310
  H     -181.166      29.174     163.749
  H     -178.048      26.393     163.300
  H     -177.862      26.333     165.762
  H     -179.173      28.721     167.897
  H     -181.496      27.145     167.577
  H     -180.200      25.103     167.534
  H     -178.636      26.298     169.894
  H     -178.103      23.959     169.591
  H     -177.948      24.156     167.824
  P     -182.279      24.328     169.211
  C     -184.399      25.004     167.941
  O     -183.258      25.470     168.648
  O     -182.843      23.523     170.334
  O     -182.016      23.414     167.922
  H     -181.988      22.473     168.183
  H     -184.980      25.840     167.611
  H     -184.992      24.390     168.586
  H     -184.084      24.432     167.093

 6  7  8  9  10  11  12  13  14  15  16  26  31  32  33  34  35 0
 6-311+G(2d,p)
 ****
 36  37 0
 6-311+G(2d,p)
 ****
 1  2  3  4  5  17  18  19  20  21  22  23  24  25 0
 3-21G
 ****
 27  28  29  30  38  39  40  41  42  43  44  45 0
 3-21G
 ****


