%nproc=1
%NoSave
%Mem=1900MB
#P OB98/GEN NMR

erre ene a

0 1
  C     -105.473     134.699     103.660
  O     -104.664     135.263     102.647
  H     -105.907     135.487     104.280
  H     -106.283     134.133     103.193
  H     -104.880     134.021     104.282
  P     -103.431     136.170     103.127
  C     -104.847     138.258     102.491
  O     -104.072     137.598     103.483
  C     -103.944     139.178     101.676
  O     -104.701     139.799     100.611
  C     -103.345     140.325     102.483
  O     -102.194     139.935     103.212
  C     -102.989     141.296     101.371
  O     -101.791     140.858     100.706
  C     -104.200     141.153     100.435
  N     -106.963     145.050      98.590
  C     -106.003     144.280      98.032
  N     -105.331     143.249      98.583
  C     -105.744     143.030      99.841
  C     -106.717     143.727     100.540
  C     -107.340     144.789      99.863
  N     -108.296     145.595     100.438
  N     -106.849     143.222     101.819
  C     -105.986     142.229     101.880
  N     -105.271     142.094     100.721
  O     -102.625     136.464     101.776
  O     -102.575     135.591     104.204
  H     -101.622     141.487      99.977
  H     -101.738     136.818     101.979
  H     -105.737     144.529      97.007
  H     -105.833     141.588     102.740
  H     -103.933     141.275      99.378
  H     -102.802     142.309     101.738
  H     -104.091     140.790     103.136
  H     -103.158     138.568     101.214
  H     -105.627     138.849     102.983
  H     -108.575     146.418      99.926
  H     -108.477     145.504     101.427
  H     -105.315     137.514     101.840
  P     -101.788     140.824     104.487
  C     -100.133     142.390     103.240
  O     -101.376     142.268     103.920
  O     -100.390     140.191     104.934
  O     -102.793     140.821     105.593
  H     -100.273     140.253     105.901
  H      -99.998     143.403     102.923
  H     -100.129     141.745     102.386
  H      -99.337     142.114     103.899

 6  7  8  9  10  11  12  13  14  15  25  28  32  33  34  35 0
 6-311+G(2d,p)
 ****
 36  39  40 0
 6-311+G(2d,p)
 ****
 1  2  3  4  5  16  17  18  19  20  21  22  23  24 0
 3-21G
 ****
 26  27  29  30  31  37  38  41  42  43  44  45  46  47 0
 3-21G
 ****
 48 0
 3-21G
 ****


