%nproc=1
%NoSave
%Mem=1900MB
#P OB98/GEN NMR

erre ene a

0 1
  C     -105.499     647.185     -71.765
  O     -104.481     648.120     -72.067
  H     -105.951     646.808     -72.687
  H     -105.056     646.345     -71.219
  H     -106.264     647.648     -71.138
  P     -104.922     649.443     -72.861
  C     -104.024     651.105     -71.073
  O     -105.164     650.565     -71.738
  C     -104.451     651.691     -69.732
  O     -105.035     650.657     -68.903
  C     -103.313     652.282     -68.914
  O     -102.967     653.591     -69.336
  C     -103.930     652.293     -67.526
  O     -104.853     653.395     -67.419
  C     -104.695     650.958     -67.517
  N     -102.629     649.006     -63.257
  C     -103.324     650.142     -63.484
  N     -103.833     650.591     -64.650
  C     -103.569     649.738     -65.648
  C     -102.860     648.549     -65.571
  C     -102.382     648.180     -64.300
  N     -101.654     647.024     -64.069
  N     -102.756     647.960     -66.820
  C     -103.414     648.763     -67.624
  N     -103.915     649.852     -66.970
  O     -106.408     649.102     -73.361
  O     -104.025     649.856     -73.980
  H     -105.409     653.219     -66.631
  H     -106.646     649.680     -74.110
  H     -103.491     650.774     -62.613
  H     -103.561     648.596     -68.684
  H     -105.633     651.013     -66.952
  H     -103.199     652.407     -66.727
  H     -102.429     651.617     -68.903
  H     -105.230     652.447     -69.918
  H     -103.588     651.893     -71.693
  H     -101.204     646.958     -63.169
  H     -101.339     646.493     -64.863
  H     -103.288     650.309     -70.931
  P     -101.409     653.969     -69.391
  C     -101.317     654.945     -71.809
  O     -100.984     653.860     -70.936
  O     -100.707     652.702     -68.724
  O     -101.051     655.246     -68.708
  H      -99.846     652.947     -68.329
  H     -100.971     654.727     -72.798
  H     -100.850     655.842     -71.458
  H     -102.379     655.078     -71.824

 6  7  8  9  10  11  12  13  14  15  25  28  32  33  34  35 0
 6-311+G(2d,p)
 ****
 36  39  40 0
 6-311+G(2d,p)
 ****
 1  2  3  4  5  16  17  18  19  20  21  22  23  24 0
 3-21G
 ****
 26  27  29  30  31  37  38  41  42  43  44  45  46  47 0
 3-21G
 ****
 48 0
 3-21G
 ****


