%nproc=1
%NoSave
%Mem=1900MB
#P OB98/GEN NMR

erre ene a

0 1
  C      -50.703     339.943    -124.942
  O      -50.892     340.971    -123.986
  P      -49.632     341.907    -123.641
  C      -49.286     340.402    -121.545
  O      -48.691     341.058    -122.658
  C      -48.698     339.005    -121.376
  O      -48.895     338.218    -122.571
  C      -47.196     338.985    -121.130
  O      -46.865     339.249    -119.777
  C      -46.857     337.547    -121.490
  O      -47.183     336.674    -120.393
  C      -47.791     337.283    -122.680
  N      -44.884     335.044    -126.165
  C      -45.530     334.503    -125.068
  N      -45.322     333.188    -124.838
  N      -46.311     335.184    -124.273
  C      -46.423     336.491    -124.620
  C      -45.835     337.141    -125.686
  C      -44.961     336.375    -126.552
  O      -44.322     336.809    -127.506
  N      -46.188     338.466    -125.720
  C      -46.991     338.617    -124.681
  N      -47.127     337.459    -123.960
  O      -50.256     343.023    -122.675
  O      -48.956     342.504    -124.831
  H      -48.151     336.723    -120.276
  H      -49.657     343.793    -122.623
  H      -44.287     334.476    -126.741
  H      -47.476     339.544    -124.408
  H      -48.215     336.276    -122.651
  H      -45.796     337.403    -121.709
  H      -44.681     332.619    -125.373
  H      -46.670     339.667    -121.813
  H      -45.729     332.779    -124.006
  H      -49.230     338.508    -120.553
  H      -50.364     340.328    -121.707
  H      -49.114     340.998    -120.641
  P      -46.037     340.593    -119.477
  C      -44.294     338.887    -118.583
  O      -44.524     340.115    -119.247
  O      -46.537     341.011    -118.017
  O      -46.240     341.678    -120.481
  H      -46.447     341.971    -117.888
  H      -43.248     338.591    -118.743
  H      -44.944     338.100    -118.963
  H      -44.459     339.014    -117.504
  H      -51.618     339.404    -125.071
  H      -49.940     339.275    -124.601
  H      -50.408     340.374    -125.876

 3  4  5  6  7  8  9  10  11  12  23  26  30  31 0
 6-311+G(2d,p)
 ****
 33  35  36  37  38 0
 6-311+G(2d,p)
 ****
 1  2  13  14  15  16  17  18  19  20  21  22  24  25 0
 3-21G
 ****
 27  28  29  32  34  39  40  41  42  43  44  45  46  47  48  49 0
 3-21G
 ****


