%nproc=1
%NoSave
%Mem=1900MB
#P OB98/GEN NMR

erre ene a

0 1
  C      -21.658      -3.211      56.316
  O      -22.911      -3.447      55.673
  P      -23.777      -2.200      55.163
  C      -25.422      -0.493      56.177
  O      -24.777      -1.747      56.334
  C      -26.583      -0.340      57.172
  O      -27.633      -1.291      56.851
  C      -26.158      -0.580      58.628
  O      -26.565       0.467      59.509
  C      -26.712      -1.959      58.936
  O      -26.911      -2.180      60.324
  C      -27.954      -2.033      58.041
  N      -28.335      -3.417      57.745
  C      -28.737      -4.197      58.821
  O      -28.710      -3.802      59.986
  N      -29.115      -5.479      58.526
  C      -29.055      -6.066      57.297
  O      -29.361      -7.233      57.092
  C      -28.561      -5.212      56.206
  C      -28.230      -3.948      56.477
  O      -24.406      -2.352      53.819
  O      -22.704      -1.003      55.151
  H      -27.328      -3.062      60.441
  H      -22.883      -0.448      54.367
  H      -29.427      -6.053      59.295
  H      -28.479      -5.650      55.223
  H      -27.851      -3.301      55.697
  H      -28.813      -1.556      58.523
  H      -25.986      -2.707      58.591
  H      -25.067      -0.598      58.727
  H      -26.983       0.672      57.052
  H      -25.814      -0.410      55.163
  H      -24.686       0.311      56.286
  P      -25.688       1.017      60.728
  C      -25.281       0.282      63.180
  O      -26.142       0.253      62.059
  O      -25.605       2.501      60.852
  O      -24.235       0.407      60.431
  H      -23.558       1.076      60.641
  H      -25.537      -0.553      63.837
  H      -25.427       1.218      63.726
  H      -24.235       0.189      62.881
  H      -21.216      -4.146      56.590
  H      -21.813      -2.619      57.194
  H      -21.006      -2.691      55.646

 3  4  5  6  7  8  9  10  11  12  13  23  28  29  30  31  32 0
 6-311+G(2d,p)
 ****
 33  34 0
 6-311+G(2d,p)
 ****
 1  2  14  15  16  17  18  19  20  21  22  24  25  26  27 0
 3-21G
 ****
 35  36  37  38  39  40  41  42  43  44  45 0
 3-21G
 ****


