%nproc=1
%NoSave
%Mem=1900MB
#P OB98/GEN NMR

erre ene a

0 1
  C     -764.807     -81.296     409.818
  O     -765.424     -82.493     410.308
  P     -764.875     -83.270     411.602
  C     -762.656     -84.348     410.847
  O     -764.040     -84.555     411.116
  C     -761.930     -85.670     410.575
  O     -762.014     -86.546     411.712
  C     -762.480     -86.456     409.389
  O     -762.014     -85.916     408.166
  C     -761.967     -87.861     409.704
  O     -760.593     -87.998     409.302
  C     -762.082     -87.904     411.232
  N     -764.191     -92.354     412.614
  C     -762.929     -92.030     412.230
  N     -762.450     -90.824     411.877
  C     -763.409     -89.881     411.966
  C     -764.730     -90.066     412.331
  C     -765.121     -91.377     412.669
  N     -766.400     -91.704     413.044
  N     -765.425     -88.870     412.285
  C     -764.526     -87.980     411.906
  N     -763.297     -88.544     411.700
  O     -765.924     -83.568     412.624
  O     -763.748     -82.307     412.208
  H     -760.223     -88.764     409.777
  H     -763.679     -82.446     413.174
  H     -762.218     -92.849     412.212
  H     -764.720     -86.925     411.771
  H     -761.234     -88.431     411.686
  H     -762.536     -88.645     409.196
  H     -763.573     -86.457     409.416
  H     -760.867     -85.436     410.419
  H     -762.210     -83.853     411.717
  H     -766.607     -92.672     413.236
  H     -767.115     -90.989     413.042
  H     -762.568     -83.686     409.979
  P     -762.958     -84.943     407.312
  C     -764.301     -86.890     406.314
  O     -763.467     -85.779     406.040
  O     -762.394     -83.597     407.002
  O     -764.285     -84.824     408.205
  H     -764.702     -83.954     408.044
  H     -763.680     -87.740     406.619
  H     -764.838     -87.157     405.401
  H     -765.023     -86.655     407.099
  H     -765.334     -80.952     408.953
  H     -763.789     -81.500     409.558
  H     -764.837     -80.543     410.577

 3  4  5  6  7  8  9  10  11  12  22  25  29  30  31  32 0
 6-311+G(2d,p)
 ****
 33  36  37 0
 6-311+G(2d,p)
 ****
 1  2  13  14  15  16  17  18  19  20  21  23  24  26 0
 3-21G
 ****
 27  28  34  35  38  39  40  41  42  43  44  45  46  47  48 0
 3-21G
 ****


