%nproc=1
%NoSave
%Mem=1900MB
#P OB98/GEN NMR

erre ene a

0 1
  C      -14.057      14.029     131.760
  O      -13.014      13.103     131.989
  H      -14.108      14.717     132.607
  H      -15.010      13.502     131.677
  H      -13.868      14.604     130.848
  P      -12.601      12.144     130.774
  C      -13.433       9.833     129.920
  O      -13.698      10.971     130.726
  C      -14.707       9.007     129.746
  O      -15.022       8.371     131.017
  C      -15.932       9.831     129.329
  O      -16.729       9.038     128.443
  C      -16.680      10.020     130.636
  O      -18.067      10.284     130.474
  C      -16.396       8.682     131.326
  N      -16.609       8.739     132.771
  C      -17.777       8.169     133.267
  O      -18.597       7.548     132.593
  N      -17.988       8.334     134.613
  C      -17.183       9.014     135.478
  O      -17.438       9.144     136.669
  C      -15.970       9.602     134.892
  C      -15.745       9.442     133.586
  O      -11.294      11.406     131.327
  O      -12.365      12.826     129.469
  H      -10.494      11.916     131.100
  H      -18.480      10.229     131.359
  H      -18.830       7.927     134.988
  H      -15.313      10.158     135.546
  H      -14.870       9.881     133.119
  H      -17.017       7.890     130.893
  H      -16.241      10.851     131.199
  H      -15.689      10.786     128.852
  H      -14.511       8.204     129.025
  H      -12.671       9.215     130.404
  H      -13.054      10.162     128.947
  P      -16.336       9.050     126.886
  C      -16.638      10.839     124.995
  O      -17.017      10.369     126.282
  O      -17.231       7.849     126.332
  O      -14.869       8.909     126.656
  H      -18.090       7.776     126.781
  H      -17.193      11.723     124.760
  H      -16.844      10.084     124.265
  H      -15.592      11.063     124.991

 6  7  8  9  10  11  12  13  14  15  16  27  31  32  33  34  35 0
 6-311+G(2d,p)
 ****
 36  37 0
 6-311+G(2d,p)
 ****
 1  2  3  4  5  17  18  19  20  21  22  23  24  25 0
 3-21G
 ****
 26  28  29  30  38  39  40  41  42  43  44  45 0
 3-21G
 ****


