%nproc=1
%NoSave
%Mem=1900MB
#P OB98/GEN NMR

erre ene a

0 1
  C      488.182     101.381    -264.678
  O      487.253     102.354    -264.242
  H      487.858     100.403    -264.316
  H      489.175     101.593    -264.274
  H      488.220     101.354    -265.769
  P      487.523     103.890    -264.609
  C      488.943     104.242    -262.480
  O      487.794     104.640    -263.217
  C      489.107     105.121    -261.242
  O      490.138     104.593    -260.386
  C      489.493     106.566    -261.544
  O      488.350     107.328    -261.904
  C      490.070     106.985    -260.202
  O      489.000     107.241    -259.272
  C      490.837     105.716    -259.780
  N      495.549     107.369    -258.848
  C      494.347     107.742    -258.272
  N      494.406     108.714    -257.335
  N      493.192     107.217    -258.593
  C      493.276     106.308    -259.591
  C      494.403     105.869    -260.252
  C      495.681     106.410    -259.840
  O      496.772     106.090    -260.309
  N      494.085     105.010    -261.269
  C      492.773     104.885    -261.192
  N      492.230     105.663    -260.193
  O      486.490     104.552    -265.466
  O      488.965     103.880    -265.304
  H      489.375     107.767    -258.541
  H      488.890     103.787    -266.272
  H      496.404     107.815    -258.566
  H      492.169     104.248    -261.827
  H      490.824     105.567    -258.694
  H      490.672     107.895    -260.261
  H      495.236     109.259    -257.157
  H      490.279     106.623    -262.304
  H      493.530     109.041    -256.947
  H      488.167     105.077    -260.674
  H      489.808     104.349    -263.140
  H      488.860     103.193    -262.177
  P      488.265     108.096    -263.312
  C      489.038     110.207    -262.033
  O      488.101     109.648    -262.940
  O      487.237     107.571    -264.249
  O      489.754     108.049    -263.881
  H      489.953     107.210    -264.375
  H      488.810     111.241    -261.877
  H      490.024     110.116    -262.438
  H      488.986     109.686    -261.100

 6  7  8  9  10  11  12  13  14  15  26  29  33  34 0
 6-311+G(2d,p)
 ****
 36  38  39  40  41 0
 6-311+G(2d,p)
 ****
 1  2  3  4  5  16  17  18  19  20  21  22  23  24  25 0
 3-21G
 ****
 27  28  30  31  32  35  37  42  43  44  45  46  47 0
 3-21G
 ****
 48  49 0
 3-21G
 ****


