%nproc=1
%NoSave
%Mem=1900MB
#P OB98/GEN NMR

erre ene a

0 1
  C       71.651     149.251     147.221
  O       72.478     148.127     146.992
  H       70.931     149.001     148.006
  H       71.102     149.504     146.309
  H       72.249     150.105     147.549
  P       73.728     148.344     146.003
  C       75.306     149.644     147.652
  O       75.016     148.442     146.957
  C       76.544     149.466     148.534
  O       76.183     148.669     149.687
  C       77.711     148.768     147.828
  O       78.934     149.357     148.280
  C       77.614     147.333     148.320
  O       78.866     146.655     148.234
  C       77.067     147.531     149.743
  N       76.378     146.341     150.243
  C       77.177     145.245     150.580
  O       78.401     145.297     150.431
  N       76.575     144.100     151.034
  C       75.277     144.028     151.084
  N       74.741     142.856     151.525
  C       74.393     145.144     150.690
  C       75.003     146.258     150.293
  O       73.496     149.849     145.513
  O       73.819     147.337     144.904
  H       78.797     145.820     148.751
  H       73.212     150.450     146.221
  H       73.318     145.031     150.734
  H       74.429     147.129     149.991
  H       77.881     147.776     150.438
  H       76.892     146.776     147.713
  H       77.654     148.822     146.743
  H       76.841     150.451     148.912
  H       75.384     142.110     151.768
  H       74.455     149.938     148.274
  H       73.750     142.671     151.552
  H       75.476     150.431     146.911
  P       79.651     150.466     147.370
  C       78.643     152.794     147.827
  O       79.662     151.863     148.159
  O       79.185     150.539     145.951
  O       81.198     150.027     147.430
  H       81.588     150.170     146.545
  H       78.761     153.678     148.419
  H       77.685     152.359     148.022
  H       78.715     153.047     146.790

 6  7  8  9  10  11  12  13  14  15  16  26  30  31  32  33  35 0
 6-311+G(2d,p)
 ****
 37  38 0
 6-311+G(2d,p)
 ****
 1  2  3  4  5  17  18  19  20  21  22  23  24  25 0
 3-21G
 ****
 27  28  29  34  36  39  40  41  42  43  44  45  46 0
 3-21G
 ****


