%nproc=1
%NoSave
%Mem=1900MB
#P OB98/GEN NMR

erre ene a

0 1
  C      449.448     186.055    -314.513
  O      448.813     186.736    -313.441
  P      447.235     187.036    -313.456
  C      446.980     189.228    -314.807
  O      447.108     188.635    -313.525
  C      446.763     190.738    -314.676
  O      446.721     191.317    -316.004
  C      445.468     191.131    -313.957
  O      445.741     192.325    -313.210
  C      444.518     191.421    -315.105
  O      443.433     192.262    -314.717
  C      445.482     192.043    -316.121
  N      444.961     191.985    -317.484
  C      443.866     192.797    -317.797
  O      443.343     193.509    -316.943
  N      443.381     192.778    -319.079
  C      443.887     191.964    -319.955
  N      443.409     192.026    -321.225
  C      444.970     191.012    -319.637
  C      445.467     191.095    -318.407
  O      446.468     186.401    -312.353
  O      446.762     186.604    -314.916
  H      442.997     192.587    -315.524
  H      446.556     185.635    -314.985
  H      445.337     190.330    -320.389
  H      446.284     190.459    -318.086
  H      445.697     193.084    -315.850
  H      444.097     190.477    -315.477
  H      445.106     190.353    -313.273
  H      447.634     191.167    -314.158
  H      442.795     192.805    -321.444
  H      446.110     188.791    -315.304
  H      443.954     191.673    -322.004
  H      447.866     189.008    -315.410
  P      445.510     192.301    -311.621
  C      443.371     193.726    -311.988
  O      444.551     193.528    -311.238
  O      446.933     192.813    -311.083
  O      445.184     190.973    -311.018
  H      447.070     192.473    -310.174
  H      442.841     194.592    -311.586
  H      442.716     192.851    -311.908
  H      443.607     193.916    -313.037
  H      450.493     185.959    -314.305
  H      449.314     186.610    -315.418
  H      449.016     185.083    -314.624

 3  4  5  6  7  8  9  10  11  12  13  23  27  28  29  30  32 0
 6-311+G(2d,p)
 ****
 34  35 0
 6-311+G(2d,p)
 ****
 1  2  14  15  16  17  18  19  20  21  22  24  25  26 0
 3-21G
 ****
 31  33  36  37  38  39  40  41  42  43  44  45  46 0
 3-21G
 ****


