%nproc=1
%NoSave
%Mem=1900MB
#P OB98/GEN NMR

erre ene a

0 1
  C      489.331    -325.063    -567.980
  O      490.228    -325.536    -566.969
  P      491.043    -324.474    -566.087
  C      493.505    -324.274    -566.832
  O      492.178    -323.793    -566.998
  C      494.534    -323.231    -567.305
  O      494.520    -322.089    -566.402
  C      495.968    -323.785    -567.347
  O      496.621    -323.532    -568.599
  C      496.620    -323.164    -566.124
  O      498.035    -323.092    -566.236
  C      495.871    -321.835    -565.962
  N      495.931    -321.332    -564.592
  C      496.563    -320.112    -564.408
  O      497.131    -319.498    -565.305
  N      496.592    -319.644    -563.121
  C      496.126    -320.301    -562.017
  O      496.214    -319.856    -560.876
  C      495.522    -321.618    -562.262
  C      495.451    -322.069    -563.523
  O      491.516    -324.967    -564.764
  O      489.987    -323.280    -565.901
  H      498.400    -324.020    -566.245
  H      490.083    -322.927    -564.989
  H      497.032    -318.744    -562.972
  H      495.163    -322.182    -561.425
  H      495.032    -323.039    -563.742
  H      496.300    -321.068    -566.616
  H      496.404    -323.795    -565.259
  H      495.983    -324.873    -567.253
  H      494.212    -322.888    -568.290
  H      493.639    -325.193    -567.409
  H      493.663    -324.543    -565.777
  P      496.621    -324.553    -569.833
  C      498.780    -325.939    -569.483
  O      497.366    -325.895    -569.386
  O      497.066    -323.994    -571.140
  O      495.077    -324.996    -569.927
  H      494.818    -325.061    -570.869
  H      499.082    -326.996    -569.502
  H      499.217    -325.463    -568.599
  H      499.144    -325.450    -570.394
  H      488.873    -325.897    -568.469
  H      489.875    -324.483    -568.696
  H      488.575    -324.455    -567.530

 3  4  5  6  7  8  9  10  11  12  13  23  28  29  30  31  32 0
 6-311+G(2d,p)
 ****
 33  34 0
 6-311+G(2d,p)
 ****
 1  2  14  15  16  17  18  19  20  21  22  24  25  26  27 0
 3-21G
 ****
 35  36  37  38  39  40  41  42  43  44  45 0
 3-21G
 ****


