%nproc=1
%NoSave
%Mem=1900MB
#P OB98/GEN NMR

erre ene a

0 1
  C       97.710    -173.009       5.077
  O       96.499    -172.640       5.721
  P       96.601    -171.678       7.007
  C       96.855    -173.719       8.598
  O       97.428    -172.510       8.100
  C       97.796    -174.384       9.597
  O       98.926    -174.957       8.913
  C       98.383    -173.440      10.639
  O       97.486    -173.201      11.713
  C       99.582    -174.242      11.115
  O       99.155    -175.254      12.044
  C      100.068    -174.892       9.812
  N      105.012    -173.630      10.117
  C      104.210    -174.320      10.952
  N      102.900    -174.606      10.804
  C      102.415    -174.062       9.674
  C      103.111    -173.303       8.744
  C      104.477    -173.096       8.991
  N      105.306    -172.416       8.128
  N      102.278    -172.916       7.716
  C      101.111    -173.442       8.008
  N      101.143    -174.153       9.179
  O       95.108    -171.688       7.585
  O       97.086    -170.296       6.723
  H       99.958    -175.612      12.467
  H       94.956    -170.890       8.120
  H      104.683    -174.702      11.853
  H      100.215    -173.340       7.407
  H      100.421    -175.919       9.962
  H      100.330    -173.632      11.627
  H       98.726    -172.503      10.179
  H       97.248    -175.200      10.086
  H       96.685    -174.403       7.761
  H      106.298    -172.471       8.284
  H      104.947    -172.196       7.200
  H       95.893    -173.492       9.069
  P       97.533    -171.742      12.386
  C       98.898    -172.680      14.388
  O       98.831    -171.748      13.325
  O       96.308    -171.781      13.411
  O       97.428    -170.620      11.411
  H       95.978    -170.877      13.582
  H       99.937    -172.765      14.716
  H       98.552    -173.670      14.071
  H       98.291    -172.328      15.229
  H       97.492    -173.645       4.245
  H       98.338    -173.530       5.769
  H       98.213    -172.130       4.732

 3  4  5  6  7  8  9  10  11  12  22  25  29  30  31  32 0
 6-311+G(2d,p)
 ****
 33  36  37 0
 6-311+G(2d,p)
 ****
 1  2  13  14  15  16  17  18  19  20  21  23  24  26 0
 3-21G
 ****
 27  28  34  35  38  39  40  41  42  43  44  45  46  47  48 0
 3-21G
 ****


