%nproc=1
%NoSave
%Mem=1900MB
#P OB98/GEN NMR

erre ene a

0 1
  C      -42.033      17.448     265.615
  O      -43.052      16.683     266.234
  H      -42.457      18.404     265.298
  H      -41.649      16.922     264.736
  H      -41.224      17.639     266.325
  P      -42.621      15.243     266.796
  C      -43.353      14.035     264.624
  O      -42.275      14.392     265.479
  C      -43.273      12.557     264.253
  O      -41.909      12.173     263.994
  C      -43.773      11.609     265.336
  O      -45.189      11.521     265.316
  C      -43.120      10.306     264.896
  O      -43.882       9.719     263.823
  C      -41.752      10.777     264.370
  N      -38.597       7.567     266.843
  C      -39.698       7.344     266.094
  N      -40.511       8.245     265.503
  C      -40.093       9.499     265.750
  C      -38.986       9.882     266.495
  C      -38.214       8.848     267.052
  N      -37.082       9.082     267.808
  N      -38.874      11.256     266.533
  C      -39.860      11.693     265.775
  N      -40.647      10.670     265.308
  O      -43.569      14.615     267.760
  O      -41.166      15.568     267.386
  H      -43.348       8.995     263.444
  H      -40.694      16.192     266.805
  H      -39.959       6.300     265.945
  H      -40.036      12.732     265.521
  H      -41.451      10.226     263.469
  H      -43.084       9.568     265.700
  H      -43.386      11.887     266.323
  H      -43.833      12.415     263.318
  H      -43.340      14.648     263.716
  H      -36.690       8.300     268.309
  H      -36.871      10.034     268.066
  H      -44.284      14.239     265.166
  P      -46.031      11.584     266.680
  C      -45.998       9.014     266.780
  O      -45.718      10.224     267.474
  O      -47.481      11.884     266.513
  O      -45.292      12.697     267.559
  H      -45.943      13.230     268.057
  H      -45.752       8.180     267.403
  H      -45.415       8.974     265.884
  H      -47.038       8.978     266.531

 6  7  8  9  10  11  12  13  14  15  25  28  32  33  34  35 0
 6-311+G(2d,p)
 ****
 36  39  40 0
 6-311+G(2d,p)
 ****
 1  2  3  4  5  16  17  18  19  20  21  22  23  24 0
 3-21G
 ****
 26  27  29  30  31  37  38  41  42  43  44  45  46  47 0
 3-21G
 ****
 48 0
 3-21G
 ****


