%nproc=1
%NoSave
%Mem=1900MB
#P OB98/GEN NMR

erre ene a

0 1
  C     -204.562     470.560     206.354
  O     -205.498     471.415     206.965
  P     -205.805     472.898     206.460
  C     -207.661     472.145     204.779
  O     -206.423     472.814     204.985
  C     -208.421     472.749     203.589
  O     -209.645     472.002     203.390
  C     -208.827     474.214     203.856
  O     -208.657     475.078     202.743
  C     -210.235     474.070     204.423
  O     -211.002     475.260     204.344
  C     -210.764     472.877     203.641
  N     -215.765     472.075     204.092
  C     -215.083     472.770     203.116
  N     -215.840     473.486     202.256
  N     -213.779     472.785     203.016
  C     -213.152     472.109     204.009
  C     -213.723     471.387     205.031
  C     -215.165     471.352     205.113
  O     -215.811     470.842     206.028
  N     -212.780     470.896     205.898
  C     -211.638     471.351     205.421
  N     -211.819     472.124     204.298
  O     -204.763     473.928     206.729
  O     -207.106     473.276     207.343
  H     -211.904     475.055     204.666
  H     -207.057     474.236     207.535
  H     -216.772     472.171     204.164
  H     -210.662     471.182     205.863
  H     -211.174     473.183     202.675
  H     -210.138     473.828     205.489
  H     -216.834     473.618     202.397
  H     -208.182     474.655     204.618
  H     -215.365     474.192     201.700
  H     -207.816     472.645     202.683
  H     -208.241     472.277     205.699
  H     -207.501     471.076     204.632
  P     -208.319     476.637     202.730
  C     -205.803     476.267     202.401
  O     -206.805     476.839     203.217
  O     -209.167     477.254     203.941
  O     -208.657     477.337     201.455
  H     -209.526     478.123     203.675
  H     -204.863     476.232     202.974
  H     -205.655     476.893     201.515
  H     -206.072     475.254     202.097
  H     -204.539     469.626     206.875
  H     -203.592     471.011     206.387
  H     -204.843     470.393     205.335

 3  4  5  6  7  8  9  10  11  12  23  26  30  31 0
 6-311+G(2d,p)
 ****
 33  35  36  37  38 0
 6-311+G(2d,p)
 ****
 1  2  13  14  15  16  17  18  19  20  21  22  24  25 0
 3-21G
 ****
 27  28  29  32  34  39  40  41  42  43  44  45  46  47  48  49 0
 3-21G
 ****


