%nproc=1
%NoSave
%Mem=1900MB
#P OB98/GEN NMR

erre ene a

0 1
  C      -39.003      32.141      63.959
  O      -39.886      32.837      63.108
  H      -39.303      32.320      64.995
  H      -37.986      32.517      63.819
  H      -39.026      31.065      63.768
  P      -39.974      32.404      61.571
  C      -41.738      32.481      59.689
  O      -41.494      32.587      61.086
  C      -43.233      32.422      59.379
  O      -43.763      31.141      59.781
  C      -44.032      33.488      60.136
  O      -44.108      34.742      59.480
  C      -45.409      32.837      60.237
  O      -46.215      33.140      59.087
  C      -45.090      31.338      60.290
  N      -48.096      29.196      63.827
  C      -48.452      29.783      62.627
  N      -49.775      29.834      62.365
  N      -47.586      30.283      61.786
  C      -46.310      30.248      62.233
  C      -45.839      29.711      63.410
  C      -46.797      29.092      64.303
  O      -46.531      28.545      65.367
  N      -44.484      29.895      63.542
  C      -44.156      30.617      62.490
  N      -45.214      30.787      61.627
  O      -39.819      30.807      61.625
  O      -38.936      33.004      60.671
  H      -46.200      34.107      58.954
  H      -39.378      30.495      60.814
  H      -48.804      28.802      64.420
  H      -43.165      31.001      62.280
  H      -45.767      30.764      59.646
  H      -45.952      33.209      61.109
  H      -50.488      29.543      63.013
  H      -43.641      33.616      61.149
  H      -50.090      30.422      61.590
  H      -43.382      32.505      58.295
  H      -41.252      31.562      59.358
  H      -41.268      33.312      59.156
  P      -44.176      36.102      60.315
  C      -44.180      38.611      59.542
  O      -43.697      37.297      59.373
  O      -42.971      35.947      61.356
  O      -45.476      36.372      60.999
  H      -43.303      35.651      62.225
  H      -43.734      39.252      58.811
  H      -43.930      38.960      60.522
  H      -45.243      38.618      59.421

 6  7  8  9  10  11  12  13  14  15  26  29  33  34 0
 6-311+G(2d,p)
 ****
 36  38  39  40  41 0
 6-311+G(2d,p)
 ****
 1  2  3  4  5  16  17  18  19  20  21  22  23  24  25 0
 3-21G
 ****
 27  28  30  31  32  35  37  42  43  44  45  46  47 0
 3-21G
 ****
 48  49 0
 3-21G
 ****


