%nproc=1
%NoSave
%Mem=1900MB
#P OB98/GEN NMR

erre ene a

0 1
  C      -11.500     -10.099      -4.382
  O      -12.598     -10.284      -5.250
  H      -10.615      -9.876      -4.983
  H      -11.308     -11.006      -3.801
  H      -11.684      -9.257      -3.710
  P      -14.001     -10.740      -4.616
  C      -15.634      -9.592      -2.964
  O      -14.333      -9.600      -3.532
  C      -15.547      -9.713      -1.445
  O      -14.902     -10.944      -1.059
  C      -14.734      -8.618      -0.760
  O      -15.404      -7.370      -0.703
  C      -14.553      -9.245       0.613
  O      -15.776      -9.128       1.360
  C      -14.274     -10.720       0.235
  N      -12.848     -11.033       0.172
  C      -12.383     -12.021       1.049
  O      -13.155     -12.582       1.824
  N      -11.043     -12.324       1.054
  C      -10.235     -11.685       0.268
  N       -8.911     -11.991       0.346
  C      -10.684     -10.650      -0.683
  C      -11.986     -10.372      -0.676
  O      -14.072     -12.145      -4.109
  O      -15.076     -10.421      -5.758
  H      -16.453      -9.640       0.882
  H      -15.962     -10.697      -5.418
  H       -9.968     -10.141      -1.311
  H      -12.389      -9.612      -1.334
  H      -14.754     -11.401       0.947
  H      -13.764      -8.770       1.203
  H      -13.750      -8.512      -1.228
  H      -16.573      -9.753      -1.058
  H       -8.635     -12.673       1.039
  H      -16.197     -10.426      -3.392
  H       -8.202     -11.361      -0.016
  H      -16.145      -8.656      -3.207
  P      -14.510      -6.044      -0.547
  C      -12.780      -4.925      -2.142
  O      -13.365      -6.127      -1.669
  O      -13.722      -6.306       0.818
  O      -15.263      -4.752      -0.538
  H      -14.189      -5.906       1.577
  H      -12.041      -5.155      -2.881
  H      -12.320      -4.407      -1.326
  H      -13.538      -4.306      -2.576

 6  7  8  9  10  11  12  13  14  15  16  26  30  31  32  33  35 0
 6-311+G(2d,p)
 ****
 37  38 0
 6-311+G(2d,p)
 ****
 1  2  3  4  5  17  18  19  20  21  22  23  24  25 0
 3-21G
 ****
 27  28  29  34  36  39  40  41  42  43  44  45  46 0
 3-21G
 ****


