%nproc=1
%NoSave
%Mem=1900MB
#P OB98/GEN NMR

erre ene a

0 1
  C     1626.701    1065.954    -631.870
  O     1625.631    1065.088    -632.256
  P     1625.632    1064.623    -633.794
  C     1626.334    1062.220    -633.111
  O     1626.617    1063.345    -633.915
  C     1627.328    1061.089    -633.361
  O     1627.329    1060.704    -634.774
  C     1628.777    1061.460    -633.019
  O     1629.415    1060.271    -632.516
  C     1629.350    1061.843    -634.376
  O     1630.773    1061.874    -634.390
  C     1628.682    1060.760    -635.230
  N     1631.345    1060.037    -639.539
  C     1631.544    1059.620    -638.261
  N     1630.788    1059.856    -637.162
  C     1629.728    1060.617    -637.489
  C     1629.384    1061.108    -638.754
  C     1630.256    1060.790    -639.811
  N     1630.060    1061.222    -641.101
  N     1628.215    1061.861    -638.669
  C     1627.914    1061.873    -637.380
  N     1628.732    1061.060    -636.653
  O     1626.430    1065.791    -634.538
  O     1624.269    1064.420    -634.350
  H     1631.087    1061.963    -635.306
  H     1625.818    1066.403    -634.954
  H     1632.423    1059.008    -638.100
  H     1627.120    1062.440    -636.929
  H     1629.139    1059.782    -635.097
  H     1629.001    1062.840    -634.645
  H     1628.866    1062.249    -632.255
  H     1627.024    1060.205    -632.773
  H     1625.324    1061.853    -633.318
  H     1630.744    1060.942    -641.789
  H     1629.270    1061.790    -641.320
  H     1626.336    1062.505    -632.046
  P     1630.231    1060.360    -631.133
  C     1628.133    1059.307    -630.095
  O     1629.107    1060.338    -629.989
  O     1630.662    1061.917    -631.133
  O     1631.389    1059.409    -631.006
  H     1629.902    1062.458    -631.300
  H     1627.491    1059.352    -629.205
  H     1628.630    1058.322    -630.116
  H     1627.538    1059.452    -630.992
  H     1626.604    1066.200    -630.833
  H     1626.663    1066.850    -632.454
  H     1627.636    1065.460    -632.034

 3  4  5  6  7  8  9  10  11  12  22  25  29  30  31  32 0
 6-311+G(2d,p)
 ****
 33  36  37 0
 6-311+G(2d,p)
 ****
 1  2  13  14  15  16  17  18  19  20  21  23  24  26 0
 3-21G
 ****
 27  28  34  35  38  39  40  41  42  43  44  45  46  47  48 0
 3-21G
 ****


