%nproc=1
%NoSave
%Mem=1900MB
#P OB98/GEN NMR

erre ene a

0 1
  C     -145.568      10.452     -87.307
  O     -145.159      11.781     -87.585
  P     -146.102      12.781     -88.411
  C     -146.023      14.611     -86.607
  O     -145.665      14.249     -87.935
  C     -145.460      15.987     -86.268
  O     -144.028      15.864     -86.094
  C     -145.641      17.065     -87.336
  O     -146.898      17.727     -87.299
  C     -144.546      18.045     -86.937
  O     -144.985      18.839     -85.820
  C     -143.414      17.109     -86.509
  N     -139.709      19.125     -89.405
  C     -140.440      19.633     -88.387
  N     -141.422      19.039     -87.679
  C     -141.595      17.771     -88.084
  C     -140.924      17.112     -89.101
  C     -139.936      17.846     -89.780
  N     -139.177      17.318     -90.802
  N     -141.392      15.819     -89.238
  C     -142.318      15.701     -88.310
  N     -142.471      16.848     -87.582
  O     -147.556      12.475     -88.323
  O     -145.542      12.709     -89.907
  H     -144.339      19.563     -85.715
  H     -146.203      13.069     -90.528
  H     -140.209      20.658     -88.108
  H     -142.902      14.810     -88.132
  H     -142.850      17.495     -85.652
  H     -144.286      18.742     -87.739
  H     -145.428      16.675     -88.338
  H     -145.889      16.310     -85.311
  H     -145.598      13.869     -85.922
  H     -138.407      17.872     -91.140
  H     -139.233      16.323     -90.970
  H     -147.111      14.592     -86.502
  P     -147.504      18.226     -88.703
  C     -149.860      18.300     -87.564
  O     -148.883      18.959     -88.340
  O     -147.595      17.171     -89.748
  O     -146.535      19.437     -89.097
  H     -146.590      20.216     -88.521
  H     -150.640      19.017     -87.296
  H     -149.425      17.900     -86.645
  H     -150.312      17.489     -88.141
  H     -144.803       9.953     -86.750
  H     -145.737       9.931     -88.226
  H     -146.472      10.469     -86.735

 3  4  5  6  7  8  9  10  11  12  22  25  29  30  31  32 0
 6-311+G(2d,p)
 ****
 33  36  37 0
 6-311+G(2d,p)
 ****
 1  2  13  14  15  16  17  18  19  20  21  23  24  26 0
 3-21G
 ****
 27  28  34  35  38  39  40  41  42  43  44  45  46  47  48 0
 3-21G
 ****


