%nproc=1
%NoSave
%Mem=1900MB
#P OB98/GEN NMR

erre ene a

0 1
  C      322.584     -46.245    -407.789
  O      321.344     -45.882    -408.365
  H      323.037     -45.354    -407.345
  H      323.259     -46.640    -408.553
  H      322.427     -46.991    -407.007
  P      320.531     -47.048    -409.107
  C      320.206     -49.246    -407.798
  O      319.841     -47.876    -407.913
  C      319.009     -50.082    -407.353
  O      318.633     -49.676    -406.011
  C      317.780     -49.910    -408.250
  O      317.119     -51.166    -408.390
  C      316.896     -48.953    -407.467
  O      315.518     -49.090    -407.802
  C      317.237     -49.325    -406.026
  N      314.414     -47.796    -402.061
  C      314.541     -48.993    -402.677
  N      315.332     -49.320    -403.719
  C      316.078     -48.266    -404.094
  C      316.054     -46.988    -403.569
  C      315.167     -46.762    -402.502
  N      315.012     -45.541    -401.893
  N      316.935     -46.168    -404.254
  C      317.488     -46.947    -405.165
  N      316.988     -48.219    -405.119
  O      321.312     -47.864    -410.082
  O      319.294     -46.240    -409.725
  H      315.440     -49.117    -408.780
  H      318.926     -45.607    -409.082
  H      313.918     -49.796    -402.280
  H      318.234     -46.637    -405.886
  H      316.655     -50.182    -405.664
  H      317.193     -47.918    -407.681
  H      318.033     -49.515    -409.236
  H      319.313     -51.134    -407.294
  H      321.020     -49.359    -407.071
  H      314.362     -45.471    -401.125
  H      315.581     -44.760    -402.194
  H      320.566     -49.584    -408.775
  P      316.842     -51.725    -409.868
  C      318.904     -51.801    -411.420
  O      318.170     -52.459    -410.392
  O      316.221     -50.763    -410.825
  O      315.861     -52.962    -409.587
  H      315.196     -53.008    -410.299
  H      319.760     -52.388    -411.679
  H      319.222     -50.840    -411.072
  H      318.281     -51.680    -412.281

 6  7  8  9  10  11  12  13  14  15  25  28  32  33  34  35 0
 6-311+G(2d,p)
 ****
 36  39  40 0
 6-311+G(2d,p)
 ****
 1  2  3  4  5  16  17  18  19  20  21  22  23  24 0
 3-21G
 ****
 26  27  29  30  31  37  38  41  42  43  44  45  46  47 0
 3-21G
 ****
 48 0
 3-21G
 ****


