%nproc=1
%NoSave
%Mem=1900MB
#P OB98/GEN NMR

erre ene a

0 1
  C      -63.667     363.713    -374.343
  O      -64.080     362.570    -375.076
  P      -65.317     362.652    -376.087
  C      -63.869     360.986    -377.393
  O      -65.195     361.406    -377.100
  C      -63.842     360.001    -378.559
  O      -64.459     358.747    -378.144
  C      -64.586     360.476    -379.819
  O      -63.870     359.952    -380.943
  C      -65.932     359.777    -379.700
  O      -66.616     359.683    -380.939
  C      -65.490     358.443    -379.110
  N      -68.634     354.412    -379.367
  C      -67.682     354.865    -380.208
  N      -66.904     355.962    -380.080
  C      -67.185     356.615    -378.938
  C      -68.144     356.284    -377.993
  C      -68.880     355.115    -378.224
  N      -69.833     354.615    -377.359
  N      -68.165     357.233    -376.983
  C      -67.241     358.107    -377.316
  N      -66.581     357.745    -378.456
  O      -65.513     363.976    -376.752
  O      -66.578     362.264    -375.188
  H      -66.910     360.575    -381.204
  H      -67.109     363.066    -374.995
  H      -67.528     354.272    -381.103
  H      -67.010     359.018    -376.778
  H      -65.066     357.774    -379.866
  H      -66.573     360.334    -379.006
  H      -64.680     361.565    -379.892
  H      -62.793     359.774    -378.798
  H      -63.466     360.491    -376.500
  H      -70.204     353.699    -377.558
  H      -69.844     354.959    -376.397
  H      -63.242     361.856    -377.614
  P      -62.683     360.806    -381.611
  C      -61.816     358.634    -382.633
  O      -62.183     359.977    -382.884
  O      -61.617     361.259    -380.662
  O      -63.447     362.058    -382.266
  H      -62.808     362.772    -382.451
  H      -60.804     358.603    -382.220
  H      -61.827     358.080    -383.580
  H      -62.499     358.158    -381.929
  H      -62.830     363.458    -373.727
  H      -64.474     364.052    -373.727
  H      -63.386     364.490    -375.023

 3  4  5  6  7  8  9  10  11  12  22  25  29  30  31  32 0
 6-311+G(2d,p)
 ****
 33  36  37 0
 6-311+G(2d,p)
 ****
 1  2  13  14  15  16  17  18  19  20  21  23  24  26 0
 3-21G
 ****
 27  28  34  35  38  39  40  41  42  43  44  45  46  47  48 0
 3-21G
 ****


