%nproc=1
%NoSave
%Mem=1900MB
#P OB98/GEN NMR

erre ene a

0 1
  C      248.755     296.281     -21.874
  O      247.782     297.181     -21.337
  P      246.676     297.899     -22.273
  C      248.227     299.931     -22.532
  O      247.365     299.019     -23.198
  C      248.447     301.239     -23.299
  O      249.297     301.021     -24.462
  C      247.167     301.907     -23.827
  O      247.424     303.317     -23.818
  C      247.086     301.390     -25.250
  O      246.237     302.159     -26.088
  C      248.555     301.410     -25.638
  N      248.200     300.791     -30.720
  C      247.991     301.859     -29.924
  N      248.140     301.957     -28.588
  C      248.599     300.813     -28.071
  C      248.879     299.638     -28.751
  C      248.653     299.642     -30.143
  N      248.823     298.536     -30.946
  N      249.312     298.649     -27.879
  C      249.275     299.222     -26.694
  N      248.861     300.526     -26.752
  O      245.476     298.376     -21.529
  O      246.260     296.759     -23.318
  H      246.429     301.906     -27.020
  H      245.286     296.745     -23.401
  H      247.640     302.758     -30.438
  H      249.524     298.736     -25.756
  H      248.874     302.422     -25.912
  H      246.685     300.354     -25.232
  H      246.276     301.664     -23.225
  H      248.993     301.928     -22.643
  H      249.205     299.445     -22.363
  H      248.546     298.615     -31.914
  H      249.031     297.648     -30.522
  H      247.801     300.157     -21.544
  P      246.967     304.261     -22.605
  C      245.099     305.497     -23.855
  O      245.407     304.565     -22.819
  O      247.827     305.470     -22.392
  O      246.974     303.296     -21.322
  H      247.011     303.831     -20.510
  H      245.320     306.521     -23.514
  H      244.026     305.414     -24.106
  H      245.679     305.279     -24.750
  H      249.384     295.923     -21.085
  H      249.351     296.792     -22.601
  H      248.259     295.454     -22.337

 3  4  5  6  7  8  9  10  11  12  22  25  29  30  31  32 0
 6-311+G(2d,p)
 ****
 33  36  37 0
 6-311+G(2d,p)
 ****
 1  2  13  14  15  16  17  18  19  20  21  23  24  26 0
 3-21G
 ****
 27  28  34  35  38  39  40  41  42  43  44  45  46  47  48 0
 3-21G
 ****


