%nproc=1
%NoSave
%Mem=1900MB
#P OB98/GEN NMR

erre ene a

0 1
  C      128.800    -303.490    -117.605
  O      127.533    -303.740    -117.040
  H      128.672    -303.254    -118.664
  H      129.423    -304.384    -117.516
  H      129.298    -302.647    -117.116
  P      127.368    -303.657    -115.452
  C      125.177    -304.986    -115.780
  O      126.350    -304.815    -114.994
  C      124.115    -305.799    -115.041
  O      124.573    -307.159    -114.881
  C      123.834    -305.259    -113.636
  O      122.853    -304.235    -113.586
  C      123.357    -306.511    -112.907
  O      121.937    -306.694    -113.053
  C      124.117    -307.644    -113.608
  N      125.742    -310.724    -109.860
  C      124.445    -310.397    -110.216
  N      123.471    -310.931    -109.448
  N      124.148    -309.607    -111.215
  C      125.229    -309.071    -111.823
  C      126.559    -309.305    -111.550
  C      126.879    -310.237    -110.491
  O      128.009    -310.574    -110.151
  N      127.380    -308.547    -112.355
  C      126.545    -307.801    -113.049
  N      125.231    -308.138    -112.820
  O      126.495    -302.328    -115.235
  O      128.646    -303.582    -114.673
  H      121.493    -305.896    -112.707
  H      126.735    -301.915    -114.388
  H      125.907    -311.359    -109.104
  H      126.837    -307.035    -113.758
  H      123.462    -308.501    -113.806
  H      123.553    -306.438    -111.833
  H      123.644    -311.474    -108.618
  H      124.757    -304.918    -113.159
  H      122.522    -310.567    -109.555
  H      123.202    -305.838    -115.647
  H      125.484    -305.507    -116.687
  H      124.774    -304.014    -116.078
  P      122.991    -303.013    -112.565
  C      120.388    -302.763    -112.351
  O      121.643    -302.906    -111.721
  O      122.932    -301.734    -113.523
  O      124.220    -303.021    -111.718
  H      123.829    -301.400    -113.708
  H      119.620    -302.710    -111.608
  H      120.211    -303.604    -112.988
  H      120.382    -301.866    -112.935

 6  7  8  9  10  11  12  13  14  15  26  29  33  34 0
 6-311+G(2d,p)
 ****
 36  38  39  40  41 0
 6-311+G(2d,p)
 ****
 1  2  3  4  5  16  17  18  19  20  21  22  23  24  25 0
 3-21G
 ****
 27  28  30  31  32  35  37  42  43  44  45  46  47 0
 3-21G
 ****
 48  49 0
 3-21G
 ****


