%nproc=1
%NoSave
%Mem=1900MB
#P OB98/GEN NMR

erre ene a

0 1
  C       54.810     573.643     427.299
  O       54.544     574.353     428.491
  P       53.596     573.720     429.613
  C       52.371     575.992     429.507
  O       52.808     574.920     430.343
  C       51.432     576.924     430.274
  O       50.341     576.180     430.880
  C       52.106     577.668     431.418
  O       52.959     578.691     430.957
  C       50.884     578.132     432.209
  O       50.314     579.322     431.610
  C       49.922     576.930     432.034
  N       49.854     576.110     433.231
  C       49.103     576.640     434.293
  O       48.626     577.767     434.224
  N       48.923     575.864     435.415
  C       49.536     574.718     435.510
  N       49.269     573.955     436.608
  C       50.459     574.203     434.482
  C       50.545     574.924     433.364
  O       54.255     572.747     430.545
  O       52.435     572.996     428.770
  H       52.316     572.095     429.103
  H       49.395     579.410     431.976
  H       50.996     573.254     434.630
  H       51.180     574.615     432.532
  H       48.918     577.300     431.790
  H       51.125     578.377     433.244
  H       52.676     576.949     432.029
  H       51.009     577.629     429.552
  H       48.635     574.338     437.304
  H       51.841     575.563     428.638
  H       49.422     572.954     436.641
  H       53.249     576.540     429.149
  P       54.492     578.664     431.474
  C       54.396     581.126     432.268
  O       55.032     580.156     431.447
  O       55.261     577.941     430.273
  O       54.700     577.937     432.773
  H       55.989     577.367     430.629
  H       55.097     581.969     432.403
  H       54.161     580.705     433.254
  H       53.494     581.482     431.791
  H       55.459     574.223     426.676
  H       53.892     573.457     426.782
  H       55.281     572.712     427.536

 3  4  5  6  7  8  9  10  11  12  13  24  27  28  29  30  32 0
 6-311+G(2d,p)
 ****
 34  35 0
 6-311+G(2d,p)
 ****
 1  2  14  15  16  17  18  19  20  21  22  23  25  26 0
 3-21G
 ****
 31  33  36  37  38  39  40  41  42  43  44  45  46 0
 3-21G
 ****


