%nproc=1
%NoSave
%Mem=1900MB
#P OB98/GEN NMR

erre ene a

0 1
  C      524.054    -435.259     -27.042
  O      523.808    -434.558     -25.839
  H      523.244    -435.039     -27.745
  H      524.069    -436.335     -26.851
  H      525.003    -434.943     -27.484
  P      524.973    -434.603     -24.730
  C      523.700    -435.645     -22.680
  O      524.600    -435.825     -23.761
  C      523.193    -436.995     -22.168
  O      522.434    -437.634     -23.230
  C      524.308    -437.953     -21.746
  O      523.851    -438.717     -20.629
  C      524.457    -438.870     -22.954
  O      525.040    -440.124     -22.604
  C      523.007    -438.943     -23.458
  N      522.928    -439.330     -24.861
  C      522.697    -440.680     -25.128
  O      522.595    -441.490     -24.206
  N      522.640    -441.105     -26.435
  C      522.858    -440.258     -27.393
  N      522.809    -440.739     -28.667
  C      523.140    -438.828     -27.159
  C      523.152    -438.437     -25.881
  O      524.636    -433.306     -23.856
  O      526.352    -434.632     -25.289
  H      524.472    -440.555     -21.930
  H      523.691    -433.211     -23.650
  H      523.325    -438.159     -27.989
  H      523.347    -437.401     -25.617
  H      522.430    -439.665     -22.866
  H      525.100    -438.397     -23.705
  H      525.233    -437.438     -21.487
  H      522.495    -436.813     -21.344
  H      522.634    -441.731     -28.778
  H      522.851    -435.032     -22.993
  H      523.013    -440.186     -29.483
  H      524.232    -435.113     -21.887
  P      524.595    -438.571     -19.218
  C      525.915    -440.779     -18.964
  O      525.971    -439.388     -19.255
  O      523.745    -438.808     -18.012
  O      525.097    -437.043     -19.249
  H      524.956    -436.666     -18.353
  H      526.899    -441.196     -19.024
  H      525.277    -441.266     -19.672
  H      525.527    -440.922     -17.977

 6  7  8  9  10  11  12  13  14  15  16  26  30  31  32  33  35 0
 6-311+G(2d,p)
 ****
 37  38 0
 6-311+G(2d,p)
 ****
 1  2  3  4  5  17  18  19  20  21  22  23  24  25 0
 3-21G
 ****
 27  28  29  34  36  39  40  41  42  43  44  45  46 0
 3-21G
 ****


