%nproc=1
%NoSave
%Mem=1900MB
#P OB98/GEN NMR

erre ene a

0 1
  C      123.074    -378.481    -499.556
  O      122.248    -378.192    -498.446
  P      122.919    -378.232    -496.988
  C      124.322    -379.999    -495.684
  O      123.393    -379.739    -496.730
  C      125.160    -381.231    -496.037
  O      125.880    -381.015    -497.269
  C      126.223    -381.563    -494.995
  O      125.661    -382.230    -493.877
  C      127.183    -382.426    -495.798
  O      126.730    -383.788    -495.852
  C      127.107    -381.769    -497.195
  N      128.274    -380.942    -497.488
  C      129.469    -381.626    -497.690
  O      129.562    -382.850    -497.610
  N      130.565    -380.848    -497.954
  C      130.595    -379.483    -497.976
  O      131.622    -378.843    -498.163
  C      129.307    -378.815    -497.724
  C      128.225    -379.563    -497.490
  O      121.681    -378.043    -495.990
  O      123.975    -377.205    -496.763
  H      127.355    -384.269    -496.430
  H      121.959    -377.520    -495.213
  H      131.435    -381.328    -498.128
  H      129.296    -377.735    -497.734
  H      127.275    -379.088    -497.288
  H      127.031    -382.541    -497.969
  H      128.186    -382.441    -495.366
  H      126.739    -380.646    -494.680
  H      124.482    -382.083    -496.178
  H      123.778    -380.180    -494.751
  H      124.965    -379.125    -495.549
  P      126.472    -382.142    -492.490
  C      128.960    -382.853    -492.138
  O      127.685    -383.171    -492.651
  O      125.439    -382.855    -491.496
  O      126.835    -380.743    -492.120
  H      124.929    -383.555    -491.939
  H      128.882    -382.285    -491.208
  H      129.513    -382.272    -492.875
  H      129.501    -383.784    -491.941
  H      122.498    -378.418    -500.455
  H      123.472    -379.469    -499.457
  H      123.877    -377.775    -499.596

 3  4  5  6  7  8  9  10  11  12  13  23  28  29  30  31  32 0
 6-311+G(2d,p)
 ****
 33  34 0
 6-311+G(2d,p)
 ****
 1  2  14  15  16  17  18  19  20  21  22  24  25  26 0
 3-21G
 ****
 27  35  36  37  38  39  40  41  42  43  44  45 0
 3-21G
 ****


