%nproc=1
%NoSave
%Mem=1900MB
#P OB98/GEN NMR

erre ene a

0 1
  C        5.590     208.039    -296.251
  O        5.718     208.609    -294.942
  P        6.645     209.918    -294.827
  C        8.756     208.697    -293.930
  O        8.178     209.459    -294.983
  C       10.285     208.765    -293.950
  O       10.704     210.145    -293.790
  C       10.980     207.956    -292.848
  O       12.184     207.388    -293.384
  C       11.385     209.013    -291.839
  O       12.465     208.583    -291.013
  C       11.719     210.172    -292.774
  N       14.589     213.573    -290.370
  C       14.955     212.420    -291.033
  N       16.273     212.121    -291.036
  N       14.109     211.630    -291.641
  C       12.829     212.073    -291.585
  C       12.340     213.202    -290.967
  C       13.287     214.042    -290.263
  O       13.013     215.049    -289.611
  N       10.981     213.313    -291.126
  C       10.647     212.249    -291.827
  N       11.732     211.464    -292.124
  O        6.515     210.321    -293.283
  O        6.220     211.036    -295.718
  H       12.539     209.222    -290.281
  H        6.198     211.241    -293.203
  H       15.277     214.132    -289.902
  H        9.642     211.989    -292.128
  H       12.689     210.027    -293.260
  H       10.530     209.246    -291.192
  H       16.986     212.717    -290.644
  H       10.361     207.168    -292.407
  H       16.569     211.301    -291.558
  H       10.629     208.435    -294.936
  H        8.443     207.655    -294.024
  H        8.373     209.076    -292.976
  P       12.190     205.799    -293.602
  C       13.239     205.265    -291.281
  O       12.118     205.160    -292.135
  O       13.688     205.496    -294.076
  O       11.175     205.312    -294.582
  H       13.712     204.692    -294.626
  H       13.987     205.965    -291.667
  H       13.701     204.281    -291.175
  H       12.906     205.609    -290.301
  H        4.955     207.179    -296.205
  H        6.556     207.750    -296.610
  H        5.164     208.762    -296.915

 3  4  5  6  7  8  9  10  11  12  23  26  30  31  33  0
 6-311+G(2d,p)
 ****
 35  36  37  38 0
 6-311+G(2d,p)
 ****
 1  2  13  14  15  16  17  18  19  20  21  22  24  25  27  28  29 0
 3-21G
 ****
 32  34  39  40  41  42  43  44  45  46  47  48  49 0
 3-21G
 ****


