%nproc=1
%NoSave
%Mem=1900MB
#P OB98/GEN NMR

erre ene a

0 1
  C       26.436    -228.647     427.816
  O       25.552    -229.435     428.582
  H       26.895    -227.902     428.472
  H       25.892    -228.123     427.027
  H       27.226    -229.267     427.381
  P       24.701    -230.591     427.863
  C       24.137    -232.924     428.773
  O       24.168    -231.532     429.056
  C       23.931    -233.741     430.049
  O       25.164    -233.751     430.823
  C       22.817    -233.200     430.960
  O       21.971    -234.268     431.383
  C       23.574    -232.643     432.158
  O       22.786    -232.589     433.341
  C       24.780    -233.588     432.203
  N       25.861    -233.062     433.024
  C       25.636    -233.043     434.406
  O       24.568    -233.458     434.863
  N       26.590    -232.502     435.222
  C       27.664    -231.979     434.708
  N       28.554    -231.433     435.573
  C       27.927    -231.957     433.253
  C       26.999    -232.512     432.477
  O       25.425    -231.306     426.770
  O       23.366    -229.866     427.360
  H       23.352    -232.270     434.077
  H       22.970    -230.392     426.628
  H       28.835    -231.506     432.873
  H       27.109    -232.540     431.400
  H       24.491    -234.577     432.592
  H       23.912    -231.624     431.929
  H       22.211    -232.432     430.478
  H       23.743    -234.785     429.768
  H       28.327    -231.467     436.561
  H       25.082    -233.203     428.286
  H       29.408    -230.982     435.287
  H       23.306    -233.120     428.084
  P       20.582    -234.431     430.592
  C       19.192    -236.621     430.512
  O       19.729    -235.582     431.316
  O       21.022    -235.086     429.202
  O       19.863    -233.140     430.385
  H       20.917    -234.438     428.482
  H       18.653    -237.308     431.130
  H       19.988    -237.136     430.016
  H       18.530    -236.202     429.783

 6  7  8  9  10  11  12  13  14  15  16  26  30  31  32  33  35 0
 6-311+G(2d,p)
 ****
 37  38 0
 6-311+G(2d,p)
 ****
 1  2  3  4  5  17  18  19  20  21  22  23  24  25 0
 3-21G
 ****
 27  28  29  34  36  39  40  41  42  43  44  45  46 0
 3-21G
 ****


