%nproc=1
%NoSave
%Mem=1900MB
#P OB98/GEN NMR

erre ene a

0 1
  C      131.013      90.509      53.062
  O      132.045      89.565      53.265
  H      130.400      90.183      52.218
  H      131.436      91.490      52.832
  H      130.383      90.574      53.952
  P      133.101      89.886      54.429
  C      134.555      91.351      52.851
  O      133.793      91.283      54.048
  C      135.959      91.857      53.165
  O      136.776      91.812      51.974
  C      136.007      93.303      53.637
  O      135.636      93.438      54.997
  C      137.469      93.637      53.389
  O      138.300      93.205      54.479
  C      137.781      92.838      52.105
  N      137.844      93.696      50.926
  C      139.103      93.839      50.351
  O      140.112      93.288      50.791
  N      139.175      94.671      49.268
  C      138.141      95.388      48.740
  O      138.288      96.174      47.812
  C      136.830      95.187      49.380
  C      136.744      94.370      50.433
  O      134.256      88.807      54.176
  O      132.556      89.815      55.815
  H      134.179      88.080      54.822
  H      139.199      93.536      54.284
  H      140.080      94.796      48.844
  H      135.986      95.736      48.981
  H      135.792      94.222      50.934
  H      138.745      92.324      52.200
  H      137.623      94.711      53.282
  H      135.387      93.934      52.990
  H      136.408      91.190      53.915
  H      134.075      92.044      52.151
  H      134.590      90.358      52.394
  P      134.991      94.824      55.480
  C      137.217      95.925      56.337
  O      136.157      95.923      55.400
  O      134.815      94.555      57.046
  O      133.738      95.188      54.758
  H      135.532      94.016      57.422
  H      137.887      96.729      56.116
  H      137.745      94.996      56.281
  H      136.821      96.051      57.323

 6  7  8  9  10  11  12  13  14  15  16  27  31  32  33  34  35 0
 6-311+G(2d,p)
 ****
 36  37 0
 6-311+G(2d,p)
 ****
 1  2  3  4  5  17  18  19  20  21  22  23  24  25 0
 3-21G
 ****
 26  28  29  30  38  39  40  41  42  43  44  45 0
 3-21G
 ****


