%nproc=1
%NoSave
%Mem=1900MB
#P OB98/GEN NMR

erre ene a

0 1
  C     -672.510     -20.768     194.007
  O     -672.566     -21.308     195.313
  P     -673.532     -22.536     195.656
  C     -675.580     -20.932     196.025
  O     -675.042     -22.072     195.399
  C     -677.055     -20.787     195.611
  O     -677.147     -20.419     194.227
  C     -677.819     -22.093     195.806
  O     -678.475     -22.110     197.069
  C     -678.778     -22.099     194.627
  O     -679.931     -21.280     194.912
  C     -677.912     -21.441     193.525
  N     -676.967     -22.290     192.781
  C     -675.917     -21.702     192.077
  O     -675.702     -20.493     192.055
  N     -675.128     -22.570     191.357
  C     -675.252     -23.929     191.326
  O     -674.702     -24.652     190.502
  C     -676.194     -24.497     192.298
  C     -677.010     -23.670     192.949
  O     -673.448     -22.634     197.249
  O     -673.189     -23.826     194.989
  H     -680.534     -21.820     195.456
  H     -672.821     -23.335     197.514
  H     -674.451     -22.133     190.738
  H     -676.233     -25.571     192.401
  H     -677.745     -24.075     193.642
  H     -678.542     -20.930     192.785
  H     -679.157     -23.097     194.429
  H     -677.140     -22.955     195.707
  H     -677.515     -19.987     196.211
  H     -675.017     -20.039     195.739
  H     -675.502     -21.030     197.111
  P     -678.227     -23.332     198.068
  C     -680.342     -24.521     197.230
  O     -678.938     -24.596     197.374
  O     -678.608     -23.086     199.495
  O     -676.657     -23.626     197.915
  H     -676.165     -23.193     198.639
  H     -680.671     -25.344     196.604
  H     -680.628     -23.576     196.773
  H     -680.815     -24.620     198.216
  H     -671.809     -19.960     193.985
  H     -673.478     -20.408     193.728
  H     -672.200     -21.528     193.320

 3  4  5  6  7  8  9  10  11  12  13  23  28  29  30  31  32 0
 6-311+G(2d,p)
 ****
 33  34 0
 6-311+G(2d,p)
 ****
 1  2  14  15  16  17  18  19  20  21  22  24  25  26  27 0
 3-21G
 ****
 35  36  37  38  39  40  41  42  43  44  45 0
 3-21G
 ****


