%nproc=1
%NoSave
%Mem=1900MB
#P OB98/GEN NMR

erre ene a

0 1
  C      743.377     405.955     636.801
  O      744.187     406.387     635.703
  P      745.174     405.334     635.002
  C      747.531     406.321     634.660
  O      746.227     406.153     634.108
  C      748.585     406.371     633.553
  O      748.645     405.123     632.838
  C      748.301     407.427     632.498
  O      748.594     408.722     632.997
  C      749.186     406.960     631.354
  O      750.549     407.392     631.543
  C      749.101     405.425     631.491
  N      748.235     404.809     630.491
  C      748.772     404.704     629.196
  O      749.895     405.156     628.953
  N      748.019     404.111     628.218
  C      746.834     403.660     628.505
  N      746.131     403.080     627.490
  C      746.230     403.761     629.848
  C      746.983     404.345     630.784
  O      744.507     404.187     634.318
  O      746.081     404.828     636.230
  H      751.072     406.961     630.833
  H      746.358     403.908     636.055
  H      745.240     403.365     630.033
  H      746.606     404.461     631.796
  H      750.099     404.972     631.395
  H      748.857     407.351     630.397
  H      747.246     407.371     632.190
  H      749.559     406.555     634.016
  H      746.564     403.030     626.578
  H      747.748     405.503     635.344
  H      745.225     402.651     627.623
  H      747.542     407.246     635.257
  P      747.363     409.737     633.197
  C      748.407     411.912     632.276
  O      747.967     411.206     633.412
  O      746.821     409.346     634.664
  O      746.276     409.622     632.176
  H      745.855     409.459     634.692
  H      748.484     412.976     632.533
  H      747.719     411.810     631.437
  H      749.397     411.557     631.987
  H      742.782     406.774     637.149
  H      744.006     405.609     637.594
  H      742.737     405.160     636.481

 3  4  5  6  7  8  9  10  11  12  13  23  27  28  29  30  32 0
 6-311+G(2d,p)
 ****
 34  35 0
 6-311+G(2d,p)
 ****
 1  2  14  15  16  17  18  19  20  21  22  24  25  26 0
 3-21G
 ****
 31  33  36  37  38  39  40  41  42  43  44  45  46 0
 3-21G
 ****


