%nproc=1
%NoSave
%Mem=1900MB
#P OB98/GEN NMR

erre ene a

0 1
  C      -18.182    -228.499    -289.091
  O      -19.025    -227.456    -289.540
  H      -18.635    -228.958    -288.205
  H      -17.197    -228.112    -288.823
  H      -18.083    -229.261    -289.870
  P      -18.528    -226.545    -290.761
  C      -17.678    -224.452    -289.503
  O      -17.329    -225.636    -290.202
  C      -16.423    -223.634    -289.154
  O      -15.683    -224.331    -288.111
  C      -15.457    -223.443    -290.342
  O      -14.786    -222.194    -290.150
  C      -14.504    -224.603    -290.144
  O      -13.340    -224.454    -290.923
  C      -14.354    -224.579    -288.618
  N      -13.793    -225.815    -288.095
  C      -12.517    -225.726    -287.540
  O      -11.913    -224.649    -287.527
  N      -11.930    -226.861    -287.042
  C      -12.542    -228.002    -287.148
  N      -11.904    -229.090    -286.654
  C      -13.874    -228.150    -287.784
  C      -14.438    -227.023    -288.222
  O      -19.595    -225.794    -291.485
  O      -17.778    -227.573    -291.730
  H      -12.628    -224.011    -290.406
  H      -18.339    -227.768    -292.502
  H      -14.332    -229.125    -287.861
  H      -15.411    -227.029    -288.700
  H      -13.716    -223.742    -288.306
  H      -14.971    -225.543    -290.462
  H      -15.971    -223.453    -291.313
  H      -16.735    -222.669    -288.742
  H      -10.989    -228.947    -286.240
  H      -18.190    -224.749    -288.582
  H      -12.272    -230.034    -286.694
  H      -18.357    -223.842    -290.107
  P      -15.156    -220.866    -290.967
  C      -13.767    -221.397    -293.072
  O      -15.068    -221.159    -292.540
  O      -14.405    -219.651    -290.535
  O      -16.730    -220.658    -290.718
  H      -16.939    -219.697    -290.733
  H      -13.840    -221.579    -294.124
  H      -13.336    -222.250    -292.592
  H      -13.149    -220.541    -292.900

 6  7  8  9  10  11  12  13  14  15  16  26  30  31  32  33  35 0
 6-311+G(2d,p)
 ****
 37  38 0
 6-311+G(2d,p)
 ****
 1  2  3  4  5  17  18  19  20  21  22  23  24  25 0
 3-21G
 ****
 27  28  29  34  36  39  40  41  42  43  44  45  46 0
 3-21G
 ****


