%nproc=1
%NoSave
%Mem=1900MB
#P OB98/GEN NMR

erre ene a

0 1
  C     -220.991      71.957     -11.957
  O     -220.032      70.968     -11.648
  H     -221.261      71.868     -13.011
  H     -220.573      72.953     -11.788
  H     -221.894      71.827     -11.353
  P     -219.612      70.747     -10.116
  C     -221.729      69.311      -9.789
  O     -220.957      70.406      -9.312
  C     -221.884      68.264      -8.688
  O     -222.460      68.862      -7.507
  C     -222.805      67.107      -9.058
  O     -222.160      66.206      -9.939
  C     -223.118      66.542      -7.678
  O     -222.045      65.712      -7.211
  C     -223.224      67.835      -6.835
  N     -224.603      68.270      -6.616
  C     -225.290      67.652      -5.576
  O     -224.799      66.757      -4.885
  N     -226.573      68.085      -5.365
  C     -227.245      68.994      -6.129
  O     -228.417      69.310      -5.929
  C     -226.484      69.589      -7.236
  C     -225.218      69.205      -7.426
  O     -218.775      71.825      -9.509
  O     -218.841      69.343     -10.136
  H     -222.291      65.415      -6.314
  H     -217.877      69.498     -10.126
  H     -227.090      67.640      -4.622
  H     -226.987      70.311      -7.868
  H     -224.643      69.630      -8.241
  H     -222.755      67.688      -5.854
  H     -224.019      65.929      -7.669
  H     -223.734      67.487      -9.500
  H     -220.883      67.896      -8.427
  H     -221.216      68.866     -10.648
  H     -222.708      69.683     -10.111
  P     -222.938      65.586     -11.190
  C     -221.626      67.011     -12.869
  O     -222.916      66.682     -12.366
  O     -224.288      65.026     -10.886
  O     -221.950      64.450     -11.736
  H     -222.299      63.567     -11.499
  H     -221.721      67.744     -13.643
  H     -221.163      66.132     -13.266
  H     -221.024      67.405     -12.077

 6  7  8  9  10  11  12  13  14  15  16  26  31  32  33  34  35 0
 6-311+G(2d,p)
 ****
 36  37 0
 6-311+G(2d,p)
 ****
 1  2  3  4  5  17  18  19  20  21  22  23  24  25 0
 3-21G
 ****
 27  28  29  30  38  39  40  41  42  43  44  45 0
 3-21G
 ****


