%nproc=1
%NoSave
%Mem=1900MB
#P OB98/GEN NMR

erre ene a

0 1
  C      -41.333     404.468    -331.241
  O      -40.149     405.221    -331.399
  H      -41.490     403.877    -332.147
  H      -42.192     405.130    -331.114
  H      -41.256     403.794    -330.392
  P      -39.696     406.231    -330.231
  C      -37.548     404.979    -329.588
  O      -38.088     406.150    -330.196
  C      -36.028     404.902    -329.778
  O      -35.733     404.375    -331.115
  C      -35.324     406.260    -329.663
  O      -34.166     406.137    -328.826
  C      -34.888     406.575    -331.094
  O      -33.775     407.469    -331.155
  C      -34.639     405.152    -331.624
  N      -34.571     405.120    -333.080
  C      -33.555     405.884    -333.675
  O      -32.784     406.541    -332.966
  N      -33.480     405.949    -335.033
  C      -34.377     405.342    -335.767
  N      -34.256     405.468    -337.109
  C      -35.479     404.537    -335.186
  C      -35.515     404.475    -333.860
  O      -40.372     405.998    -328.918
  O      -39.958     407.700    -330.824
  H      -33.026     407.064    -330.645
  H      -40.045     408.327    -330.079
  H      -36.188     404.053    -335.821
  H      -36.285     403.916    -333.334
  H      -33.713     404.747    -331.217
  H      -35.720     407.043    -331.632
  H      -35.975     407.050    -329.268
  H      -35.622     404.174    -329.072
  H      -33.493     406.026    -337.467
  H      -38.036     404.093    -330.028
  H      -34.905     405.053    -337.776
  H      -37.772     405.017    -328.517
  P      -34.106     407.119    -327.561
  C      -36.330     406.835    -326.226
  O      -34.967     406.449    -326.374
  O      -34.986     408.373    -328.014
  O      -32.714     407.520    -327.192
  H      -34.413     409.146    -328.154
  H      -36.763     406.308    -325.402
  H      -36.867     406.599    -327.121
  H      -36.385     407.888    -326.044

 6  7  8  9  10  11  12  13  14  15  16  26  30  31  32  33  35 0
 6-311+G(2d,p)
 ****
 37  38 0
 6-311+G(2d,p)
 ****
 1  2  3  4  5  17  18  19  20  21  22  23  24  25 0
 3-21G
 ****
 27  28  29  34  36  39  40  41  42  43  44  45  46 0
 3-21G
 ****


