%nproc=1
%NoSave
%Mem=1900MB
#P OB98/GEN NMR

erre ene a

0 1
  C       43.945     722.539    -450.968
  O       44.991     723.378    -450.514
  P       46.053     722.824    -449.457
  C       45.230     724.503    -447.692
  O       46.358     723.990    -448.408
  C       45.676     725.258    -446.436
  O       46.422     724.378    -445.557
  C       46.620     726.431    -446.731
  O       45.900     727.541    -447.229
  C       47.261     726.655    -445.360
  O       46.394     727.418    -444.513
  C       47.389     725.195    -444.831
  N       51.872     724.585    -442.509
  C       50.784     725.324    -442.190
  N       49.638     725.454    -442.881
  C       49.693     724.773    -444.038
  C       50.757     724.011    -444.518
  C       51.887     723.904    -443.690
  N       52.988     723.140    -443.985
  N       50.440     723.480    -445.767
  C       49.243     723.918    -446.016
  N       48.703     724.644    -444.980
  O       47.275     722.160    -450.052
  O       45.222     721.763    -448.588
  H       46.305     728.299    -444.904
  H       45.617     720.866    -448.676
  H       50.840     725.831    -441.236
  H       48.681     723.739    -446.930
  H       47.098     725.124    -443.784
  H       48.217     727.166    -445.425
  H       47.395     726.114    -447.439
  H       44.785     725.607    -445.889
  H       44.601     723.654    -447.406
  H       53.677     723.004    -443.247
  H       52.886     722.398    -444.693
  H       44.662     725.171    -448.332
  P       45.526     727.638    -448.788
  C       47.156     729.547    -449.329
  O       45.794     729.149    -449.236
  O       44.215     727.071    -449.180
  O       46.743     726.832    -449.496
  H       46.405     726.401    -450.291
  H       47.531     729.767    -448.324
  H       47.218     730.458    -449.910
  H       47.771     728.785    -449.807
  H       43.336     723.074    -451.666
  H       43.347     722.232    -450.135
  H       44.361     721.677    -451.445

 3  4  5  6  7  8  9  10  11  12  22  25  29  30  31  32 0
 6-311+G(2d,p)
 ****
 33  36  37 0
 6-311+G(2d,p)
 ****
 1  2  13  14  15  16  17  18  19  20  21  23  24  26 0
 3-21G
 ****
 27  28  34  35  38  39  40  41  42  43  44  45  46  47  48 0
 3-21G
 ****


