%nproc=1
%NoSave
%Mem=1900MB
#P OB98/GEN NMR

erre ene a

0 1
  C      -93.204      17.557     -26.444
  O      -94.510      18.105     -26.661
  P      -94.631      19.707     -26.567
  C      -95.207      20.708     -28.894
  O      -95.701      20.190     -27.665
  C      -96.303      20.792     -29.959
  O      -97.051      19.552     -29.972
  C      -97.315      21.925     -29.752
  O      -97.683      22.452     -31.035
  C      -98.531      21.211     -29.190
  O      -99.733      21.945     -29.403
  C      -98.448      19.888     -29.948
  N     -101.843      16.232     -30.774
  C     -101.184      17.043     -31.675
  N     -101.491      16.870     -32.979
  N     -100.302      17.944     -31.331
  C     -100.070      17.985     -29.995
  C     -100.651      17.227     -29.003
  C     -101.657      16.264     -29.398
  O     -102.314      15.552     -28.642
  N     -100.158      17.559     -27.764
  C      -99.289      18.519     -28.007
  N      -99.206      18.818     -29.344
  O      -93.226      20.213     -27.143
  O      -94.866      20.212     -25.183
  H      -99.895      21.957     -30.365
  H      -92.783      20.783     -26.486
  H     -102.528      15.569     -31.092
  H      -98.715      19.046     -27.259
  H      -98.787      20.002     -30.986
  H      -98.401      21.068     -28.110
  H     -102.112      16.152     -33.319
  H      -96.965      22.734     -29.103
  H     -100.984      17.424     -33.659
  H      -95.820      20.889     -30.939
  H      -94.400      20.066     -29.259
  H      -94.784      21.702     -28.709
  P      -97.457      24.026     -31.251
  C      -94.946      24.106     -30.579
  O      -95.907      24.200     -31.613
  O      -97.571      24.622     -29.771
  O      -98.426      24.659     -32.195
  H      -97.871      25.550     -29.802
  H      -95.375      23.723     -29.650
  H      -94.527      25.099     -30.393
  H      -94.144      23.437     -30.901
  H      -93.245      16.491     -26.531
  H      -92.864      17.822     -25.465
  H      -92.527      17.948     -27.175

 3  4  5  6  7  8  9  10  11  12  23  26  30  31  33  0
 6-311+G(2d,p)
 ****
 35  36  37  38 0
 6-311+G(2d,p)
 ****
 1  2  13  14  15  16  17  18  19  20  21  22  24  25  27  28  29 0
 3-21G
 ****
 32  34  39  40  41  42  43  44  45  46  47  48  49 0
 3-21G
 ****


