%nproc=1
%NoSave
%Mem=1900MB
#P OB98/GEN NMR

erre ene a

0 1
  C      -70.475     -49.437      23.362
  O      -70.765     -50.384      24.367
  H      -69.495     -48.999      23.568
  H      -71.225     -48.641      23.375
  H      -70.449     -49.902      22.374
  P      -71.980     -51.401      24.141
  C      -71.963     -53.918      23.571
  O      -71.408     -52.640      23.298
  C      -71.265     -55.002      22.741
  O      -71.287     -54.613      21.344
  C      -69.793     -55.152      23.139
  O      -69.303     -56.469      22.900
  C      -69.092     -54.186      22.197
  O      -67.712     -54.496      22.002
  C      -69.940     -54.325      20.935
  N      -67.152     -51.209      18.020
  C      -66.736     -52.215      18.869
  N      -65.400     -52.420      18.948
  N      -67.551     -52.939      19.591
  C      -68.850     -52.577      19.465
  C      -69.383     -51.584      18.675
  C      -68.473     -50.813      17.854
  O      -68.786     -49.895      17.103
  N      -70.745     -51.506      18.819
  C      -71.036     -52.445      19.696
  N      -69.922     -53.139      20.099
  O      -72.904     -50.652      23.068
  O      -72.753     -51.768      25.371
  H      -67.666     -55.384      21.600
  H      -73.816     -50.991      23.111
  H      -66.485     -50.702      17.465
  H      -72.031     -52.672      20.058
  H      -69.589     -55.164      20.323
  H      -69.139     -53.186      22.635
  H      -64.739     -51.761      18.565
  H      -69.609     -54.888      24.177
  H      -65.067     -52.920      19.776
  H      -71.816     -55.946      22.816
  H      -73.025     -53.865      23.317
  H      -71.895     -54.143      24.636
  P      -68.832     -57.349      24.153
  C      -70.458     -58.579      25.839
  O      -69.966     -58.407      24.529
  O      -68.853     -56.316      25.371
  O      -67.490     -57.991      23.985
  H      -67.951     -56.180      25.717
  H      -71.209     -59.341      25.841
  H      -70.883     -57.659      26.184
  H      -69.656     -58.867      26.486

 6  7  8  9  10  11  12  13  14  15  26  29  33  34 0
 6-311+G(2d,p)
 ****
 36  38  39  40  41 0
 6-311+G(2d,p)
 ****
 1  2  3  4  5  16  17  18  19  20  21  22  23  24  25 0
 3-21G
 ****
 27  28  30  31  32  35  37  42  43  44  45  46  47 0
 3-21G
 ****
 48  49 0
 3-21G
 ****


