%nproc=1
%NoSave
%Mem=1900MB
#P OB98/GEN NMR

erre ene a

0 1
  C      228.406    -306.622    -312.419
  O      227.328    -307.554    -312.607
  P      227.351    -308.919    -311.766
  C      224.762    -308.688    -311.698
  O      225.881    -309.556    -311.783
  C      223.501    -309.379    -312.235
  O      223.525    -309.483    -313.674
  C      223.327    -310.801    -311.728
  O      222.738    -310.831    -310.431
  C      222.353    -311.363    -312.759
  O      221.012    -310.936    -312.442
  C      222.831    -310.690    -314.056
  N      224.089    -312.271    -318.768
  C      223.105    -311.459    -318.329
  N      222.823    -311.107    -317.055
  C      223.699    -311.661    -316.202
  C      224.756    -312.501    -316.503
  C      224.944    -312.810    -317.864
  N      225.952    -313.631    -318.314
  N      225.429    -312.878    -315.358
  C      224.790    -312.266    -314.383
  N      223.739    -311.528    -314.835
  O      227.511    -308.405    -310.255
  O      228.460    -309.845    -312.148
  H      220.726    -311.470    -311.668
  H      228.054    -309.040    -309.744
  H      222.453    -311.048    -319.086
  H      225.071    -312.327    -313.332
  H      221.999    -310.412    -314.705
  H      222.337    -312.454    -312.774
  H      224.275    -311.356    -311.773
  H      222.628    -308.774    -311.941
  H      224.946    -307.769    -312.263
  H      226.042    -313.783    -319.307
  H      226.598    -314.014    -317.638
  H      224.624    -308.380    -310.651
  P      223.718    -311.066    -309.189
  C      222.607    -308.978    -308.120
  O      223.053    -310.316    -307.949
  O      224.991    -310.171    -309.554
  O      224.095    -312.492    -308.971
  H      225.803    -310.563    -309.179
  H      221.916    -308.727    -307.311
  H      222.097    -308.847    -309.078
  H      223.478    -308.306    -308.071
  H      228.251    -305.767    -313.044
  H      229.332    -307.091    -312.679
  H      228.437    -306.314    -311.395

 3  4  5  6  7  8  9  10  11  12  22  25  29  30  31  32 0
 6-311+G(2d,p)
 ****
 33  36  37 0
 6-311+G(2d,p)
 ****
 1  2  13  14  15  16  17  18  19  20  21  23  24  26 0
 3-21G
 ****
 27  28  34  35  38  39  40  41  42  43  44  45  46  47  48 0
 3-21G
 ****


