%nproc=1
%NoSave
%Mem=1900MB
#P OB98/GEN NMR

erre ene a

0 1
  C      -46.597     -61.444      -1.674
  O      -47.743     -62.010      -2.282
  H      -46.284     -62.089      -0.850
  H      -46.835     -60.454      -1.275
  H      -45.783     -61.373      -2.398
  P      -48.350     -61.219      -3.539
  C      -49.058     -63.202      -5.046
  O      -49.473     -62.205      -4.122
  C      -50.173     -64.223      -5.268
  O      -50.313     -65.078      -4.120
  C      -51.549     -63.609      -5.497
  O      -51.694     -63.180      -6.842
  C      -52.445     -64.796      -5.184
  O      -52.489     -65.685      -6.318
  C      -51.707     -65.474      -4.015
  N      -55.695     -65.661      -0.786
  C      -55.591     -65.949      -2.102
  N      -54.510     -65.836      -2.905
  C      -53.454     -65.368      -2.220
  C      -53.411     -65.030      -0.875
  C      -54.596     -65.202      -0.142
  N      -54.696     -64.914       1.202
  N      -52.154     -64.584      -0.524
  C      -51.437     -64.702      -1.623
  N      -52.187     -65.138      -2.687
  O      -47.354     -60.697      -4.518
  O      -49.227     -60.100      -2.800
  H      -52.979     -65.229      -7.029
  H      -49.662     -60.473      -2.013
  H      -56.494     -66.324      -2.572
  H      -50.375     -64.502      -1.699
  H      -51.744     -66.567      -4.092
  H      -53.474     -64.497      -4.975
  H      -51.754     -62.806      -4.781
  H      -49.882     -64.858      -6.113
  H      -48.158     -63.708      -4.682
  H      -55.619     -64.903       1.609
  H      -53.915     -64.457       1.650
  H      -48.815     -62.698      -5.986
  P      -51.675     -61.620      -7.209
  C      -50.153     -61.603      -9.282
  O      -51.491     -61.527      -8.802
  O      -50.710     -60.799      -6.424
  O      -53.182     -61.136      -6.991
  H      -53.198     -60.239      -6.606
  H      -50.152     -61.531     -10.350
  H      -49.721     -62.537      -8.987
  H      -49.580     -60.799      -8.870

 6  7  8  9  10  11  12  13  14  15  25  28  32  33  34  35 0
 6-311+G(2d,p)
 ****
 36  39  40 0
 6-311+G(2d,p)
 ****
 1  2  3  4  5  16  17  18  19  20  21  22  23  24 0
 3-21G
 ****
 26  27  29  30  31  37  38  41  42  43  44  45  46  47 0
 3-21G
 ****
 48 0
 3-21G
 ****


