%nproc=1
%NoSave
%Mem=1900MB
#P OB98/GEN NMR

erre ene a

0 1
  C     -100.738      60.487    -174.679
  O     -101.143      59.276    -175.286
  H     -101.375      61.308    -175.018
  H     -100.835      60.388    -173.595
  H      -99.693      60.702    -174.921
  P     -101.087      59.233    -176.889
  C     -102.639      60.014    -178.806
  O     -102.514      59.755    -177.416
  C     -103.900      60.835    -179.072
  O     -105.051      60.008    -178.756
  C     -103.997      62.127    -178.245
  O     -104.297      63.246    -179.090
  C     -105.177      61.890    -177.321
  O     -105.921      63.071    -177.054
  C     -105.996      60.855    -178.086
  N     -110.774      59.261    -177.303
  C     -110.150      59.691    -178.417
  N     -108.850      60.009    -178.582
  C     -108.163      59.812    -177.441
  C     -108.660      59.357    -176.229
  C     -110.039      59.094    -176.175
  N     -110.687      58.708    -175.025
  N     -107.656      59.291    -175.282
  C     -106.582      59.744    -175.900
  N     -106.843      60.083    -177.200
  O     -101.116      57.662    -177.214
  O      -99.892      59.893    -177.487
  H     -106.734      62.806    -176.588
  H     -100.295      57.424    -177.684
  H     -110.779      59.799    -179.299
  H     -105.611      59.886    -175.443
  H     -106.629      61.320    -178.850
  H     -104.812      61.485    -176.370
  H     -103.083      62.333    -177.681
  H     -103.952      61.061    -180.145
  H     -102.709      59.067    -179.351
  H     -111.694      58.654    -175.045
  H     -110.162      58.691    -174.159
  H     -101.753      60.556    -179.152
  P     -103.215      64.437    -179.099
  C     -102.742      66.576    -177.700
  O     -103.610      65.476    -177.936
  O     -103.549      65.223    -180.453
  O     -101.799      63.966    -179.077
  H     -102.752      65.270    -181.014
  H     -103.133      67.174    -176.904
  H     -102.667      67.168    -178.588
  H     -101.772      66.214    -177.431

 6  7  8  9  10  11  12  13  14  15  25  28  32  33  34  35 0
 6-311+G(2d,p)
 ****
 36  39  40 0
 6-311+G(2d,p)
 ****
 1  2  3  4  5  16  17  18  19  20  21  22  23  24 0
 3-21G
 ****
 26  27  29  30  31  37  38  41  42  43  44  45  46  47  48 0
 3-21G
 ****


