%nproc=1
%NoSave
%Mem=1900MB
#P OB98/GEN NMR

erre ene a

0 1
  C       22.842     -55.664    -531.519
  O       22.565     -55.696    -530.135
  H       21.897     -55.652    -532.068
  H       23.403     -56.558    -531.809
  H       23.414     -54.767    -531.775
  P       23.814     -55.549    -529.143
  C       22.855     -57.349    -527.485
  O       23.931     -56.922    -528.317
  C       22.969     -58.851    -527.218
  O       22.836     -59.609    -528.437
  C       24.323     -59.278    -526.671
  O       24.528     -58.872    -525.337
  C       24.225     -60.787    -526.849
  O       23.440     -61.381    -525.807
  C       23.493     -60.885    -528.211
  N       24.390     -61.232    -529.304
  C       24.398     -62.581    -529.685
  O       23.670     -63.392    -529.109
  N       25.253     -62.979    -530.681
  C       26.011     -62.108    -531.269
  N       26.845     -62.568    -532.242
  C       26.019     -60.675    -530.920
  C       25.194     -60.311    -529.938
  O       23.267     -54.522    -528.042
  O       25.098     -55.140    -529.791
  H       23.821     -61.069    -524.964
  H       22.425     -54.793    -527.641
  H       26.665     -59.983    -531.442
  H       25.137     -59.277    -529.616
  H       22.699     -61.647    -528.168
  H       25.206     -61.267    -526.825
  H       25.128     -58.913    -527.323
  H       22.155     -59.139    -526.542
  H       26.830     -63.565    -532.438
  H       21.892     -57.111    -527.940
  H       27.502     -61.993    -532.743
  H       22.929     -56.792    -526.545
  P       25.497     -57.639    -524.997
  C       25.372     -58.199    -522.485
  O       26.221     -58.010    -523.611
  O       24.851     -56.296    -525.021
  O       26.690     -57.808    -526.059
  H       27.172     -58.652    -525.996
  H       25.965     -58.440    -521.628
  H       24.690     -58.999    -522.683
  H       24.823     -57.300    -522.298

 6  7  8  9  10  11  12  13  14  15  16  26  30  31  32  33  35 0
 6-311+G(2d,p)
 ****
 37  38 0
 6-311+G(2d,p)
 ****
 1  2  3  4  5  17  18  19  20  21  22  23  24  25 0
 3-21G
 ****
 27  28  29  34  36  39  40  41  42  43  44  45  46 0
 3-21G
 ****


