%nproc=1
%NoSave
%Mem=1900MB
#P OB98/GEN NMR

erre ene a

0 1
  C      -94.097    -647.363     104.634
  O      -94.652    -648.106     103.568
  H      -94.835    -646.663     105.031
  H      -93.803    -648.054     105.432
  H      -93.209    -646.820     104.296
  P      -95.161    -647.260     102.301
  C      -93.947    -648.853     100.658
  O      -95.182    -648.267     101.045
  C      -94.166    -649.831      99.516
  O      -94.748    -651.050     100.065
  C      -95.105    -649.320      98.407
  O      -94.513    -649.488      97.118
  C      -96.327    -650.219      98.507
  O      -96.931    -650.475      97.244
  C      -95.759    -651.481      99.146
  N     -100.192    -653.929      98.509
  C      -99.229    -653.576      97.633
  N      -98.024    -653.020      97.873
  C      -97.850    -652.847      99.192
  C      -98.719    -653.167     100.219
  C      -99.961    -653.716      99.826
  N     -100.961    -654.008     100.721
  N      -98.193    -652.830     101.452
  C      -97.034    -652.269     101.176
  N      -96.785    -652.245      99.824
  O      -93.924    -646.290     101.988
  O      -96.417    -646.491     102.535
  H      -97.518    -651.248      97.357
  H      -94.218    -645.366     102.085
  H      -99.454    -653.776      96.583
  H      -96.357    -651.835     101.901
  H      -95.281    -652.130      98.402
  H      -97.070    -649.742      99.161
  H      -95.376    -648.261      98.548
  H      -93.196    -650.110      99.091
  H      -93.511    -649.383     101.514
  H     -101.859    -654.290     100.347
  H     -100.847    -653.749     101.692
  H      -93.258    -648.055     100.354
  P      -93.338    -648.459      96.729
  C      -92.078    -650.211      95.283
  O      -92.704    -648.931      95.334
  O      -92.199    -648.781      97.808
  O      -93.757    -647.024      96.790
  H      -91.969    -647.972      98.298
  H      -91.705    -650.387      94.296
  H      -92.792    -650.967      95.534
  H      -91.267    -650.240      95.981

 6  7  8  9  10  11  12  13  14  15  25  28  32  33  34  35 0
 6-311+G(2d,p)
 ****
 36  39  40 0
 6-311+G(2d,p)
 ****
 1  2  3  4  5  16  17  18  19  20  21  22  23  24 0
 3-21G
 ****
 26  27  29  30  31  37  38  41  42  43  44  45  46  47  48 0
 3-21G
 ****


