%nproc=1
%NoSave
%Mem=1900MB
#P OB98/GEN NMR

erre ene a

0 1
  C     -161.646     104.700     -16.899
  O     -161.582     104.421     -18.284
  H     -161.793     103.775     -16.335
  H     -160.703     105.155     -16.589
  H     -162.461     105.399     -16.690
  P     -162.892     103.771     -18.945
  C     -163.568     106.252     -19.285
  O     -163.997     104.934     -18.982
  C     -164.755     107.102     -19.728
  O     -164.349     108.474     -19.898
  C     -165.372     106.689     -21.060
  O     -166.239     105.575     -20.917
  C     -166.141     107.951     -21.420
  O     -167.375     107.996     -20.679
  C     -165.191     109.054     -20.929
  N     -163.637     113.326     -23.275
  C     -164.436     113.124     -22.206
  N     -164.787     111.957     -21.626
  C     -164.204     110.924     -22.254
  C     -163.349     110.972     -23.341
  C     -163.069     112.245     -23.865
  N     -162.302     112.433     -25.004
  N     -162.964     109.700     -23.717
  C     -163.592     108.900     -22.883
  N     -164.347     109.592     -21.977
  O     -163.415     102.782     -17.797
  O     -162.664     103.053     -20.232
  H     -167.133     108.080     -19.737
  H     -163.100     101.879     -17.984
  H     -164.854     114.020     -21.757
  H     -163.534     107.820     -22.900
  H     -165.731     109.891     -20.472
  H     -166.398     108.010     -22.481
  H     -164.604     106.508     -21.821
  H     -165.505     107.075     -18.928
  H     -162.827     106.219     -20.090
  H     -162.553     113.267     -25.528
  H     -162.136     111.590     -25.540
  H     -163.105     106.684     -18.393
  P     -166.770     104.866     -22.254
  C     -164.941     103.041     -22.126
  O     -165.514     104.094     -22.890
  O     -166.999     106.101     -23.245
  O     -168.013     104.060     -22.098
  H     -167.921     106.098     -23.569
  H     -164.119     102.617     -22.664
  H     -165.679     102.287     -21.949
  H     -164.594     103.427     -21.190

 6  7  8  9  10  11  12  13  14  15  25  28  32  33  34  35 0
 6-311+G(2d,p)
 ****
 36  39  40 0
 6-311+G(2d,p)
 ****
 1  2  3  4  5  16  17  18  19  20  21  22  23  24 0
 3-21G
 ****
 26  27  29  30  31  37  38  41  42  43  44  45  46  47  48 0
 3-21G
 ****


