%nproc=1
%NoSave
%Mem=1900MB
#P OB98/GEN NMR

erre ene a

0 1
  C      589.920     469.223     349.522
  O      589.436     470.505     349.859
  H      590.975     469.159     349.792
  H      589.826     469.055     348.442
  H      589.369     468.440     350.062
  P      587.868     470.815     349.683
  C      586.482     471.631     347.668
  O      587.579     470.830     348.103
  C      586.939     472.584     346.559
  O      587.843     473.573     347.096
  C      587.708     471.892     345.425
  O      586.807     471.194     344.581
  C      588.395     473.091     344.795
  O      587.491     473.824     343.948
  C      588.770     473.924     346.042
  N      590.157     473.724     346.461
  C      591.136     474.357     345.686
  O      590.878     475.027     344.694
  N      592.434     474.125     346.075
  C      592.837     473.283     347.074
  O      594.005     472.938     347.242
  C      591.768     472.715     347.901
  C      590.494     472.948     347.571
  O      587.356     472.002     350.432
  O      587.164     469.462     350.162
  H      586.825     469.577     351.071
  H      587.970     474.617     343.650
  H      593.151     474.529     345.483
  H      592.048     472.098     348.747
  H      589.686     472.514     348.150
  H      588.627     475.000     345.842
  H      589.249     472.801     344.180
  H      588.461     471.215     345.846
  H      586.055     473.104     346.168
  H      586.109     472.212     348.512
  H      585.686     470.970     347.310
  P      587.081     469.665     344.187
  C      588.359     468.436     342.343
  O      588.279     469.610     343.121
  O      585.864     468.887     343.784
  O      587.744     469.025     345.514
  H      587.235     468.224     345.766
  H      589.189     468.509     341.672
  H      587.456     468.318     341.782
  H      588.493     467.591     342.985

 6  7  8  9  10  11  12  13  14  15  16  27  31  32  33  34  35 0
 6-311+G(2d,p)
 ****
 36  37 0
 6-311+G(2d,p)
 ****
 1  2  3  4  5  17  18  19  20  21  22  23  24  25 0
 3-21G
 ****
 26  28  29  30  38  39  40  41  42  43  44  45 0
 3-21G
 ****


