%nproc=1
%NoSave
%Mem=1900MB
#P OB98/GEN NMR

erre ene a

0 1
  C      147.094    -367.299    -268.081
  O      147.840    -367.896    -269.148
  P      147.604    -367.347    -270.632
  C      149.891    -368.168    -271.556
  O      148.476    -368.236    -271.638
  C      150.532    -369.087    -272.598
  O      150.152    -370.468    -272.399
  C      150.139    -368.753    -274.031
  O      150.928    -367.697    -274.562
  C      150.477    -370.056    -274.739
  O      151.892    -370.119    -274.999
  C      150.071    -371.105    -273.697
  N      147.293    -374.454    -276.277
  C      148.651    -374.209    -276.314
  N      149.381    -374.977    -277.155
  N      149.245    -373.295    -275.589
  C      148.397    -372.620    -274.782
  C      147.034    -372.768    -274.658
  C      146.388    -373.769    -275.474
  O      145.187    -374.022    -275.496
  N      146.520    -371.894    -273.739
  C      147.565    -371.231    -273.290
  N      148.729    -371.622    -273.904
  O      148.392    -365.950    -270.623
  O      146.168    -367.167    -271.001
  H      152.333    -370.142    -274.128
  H      147.988    -365.337    -271.266
  H      146.890    -375.166    -276.860
  H      147.536    -370.462    -272.528
  H      150.752    -371.967    -273.688
  H      149.973    -370.146    -275.709
  H      148.995    -375.729    -277.704
  H      149.062    -368.545    -274.111
  H      150.382    -374.835    -277.170
  H      151.625    -369.008    -272.499
  H      150.229    -368.450    -270.554
  H      150.206    -367.128    -271.691
  P      150.176    -366.535    -275.374
  C      152.505    -365.390    -275.433
  O      151.320    -365.713    -276.131
  O      149.691    -365.549    -274.209
  O      149.038    -366.999    -276.217
  H      148.861    -365.110    -274.471
  H      153.228    -364.978    -276.141
  H      152.937    -366.280    -274.965
  H      152.297    -364.636    -274.667
  H      147.358    -367.767    -267.156
  H      146.047    -367.429    -268.261
  H      147.320    -366.254    -268.029

 3  4  5  6  7  8  9  10  11  12  23  26  30  31 0
 6-311+G(2d,p)
 ****
 33  35  36  37  38 0
 6-311+G(2d,p)
 ****
 1  2  13  14  15  16  17  18  19  20  21  22  24  25 0
 3-21G
 ****
 27  28  29  32  34  39  40  41  42  43  44  45  46  47  48  49 0
 3-21G
 ****


