%nproc=1
%NoSave
%Mem=1900MB
#P OB98/GEN NMR

erre ene a

0 1
  C      353.145    -389.822    -409.336
  O      354.170    -388.935    -409.743
  H      352.249    -389.618    -409.927
  H      352.908    -389.665    -408.277
  H      353.457    -390.856    -409.500
  P      355.563    -389.030    -408.951
  C      356.895    -389.434    -411.124
  O      356.668    -388.559    -410.022
  C      357.934    -388.835    -412.071
  O      357.335    -387.700    -412.755
  C      359.203    -388.335    -411.366
  O      360.335    -388.574    -412.207
  C      358.973    -386.840    -411.255
  O      360.187    -386.111    -411.109
  C      358.202    -386.561    -412.544
  N      358.552    -381.520    -411.940
  C      359.486    -382.468    -412.173
  N      359.302    -383.793    -412.342
  C      357.986    -384.100    -412.312
  C      356.924    -383.237    -412.086
  C      357.252    -381.881    -411.875
  N      356.317    -380.912    -411.609
  N      355.729    -383.936    -412.084
  C      356.067    -385.191    -412.315
  N      357.420    -385.340    -412.441
  O      355.840    -390.335    -408.286
  O      355.474    -387.762    -407.974
  H      360.839    -386.466    -411.751
  H      355.177    -386.963    -408.450
  H      360.521    -382.118    -412.213
  H      355.369    -386.026    -412.380
  H      358.861    -386.459    -413.417
  H      358.348    -386.626    -410.376
  H      359.362    -388.798    -410.395
  H      358.179    -389.576    -412.847
  H      355.956    -389.608    -411.668
  H      356.643    -379.965    -411.480
  H      355.334    -381.160    -411.566
  H      357.251    -390.394    -410.723
  P      361.728    -389.016    -411.542
  C      362.024    -391.196    -412.878
  O      362.546    -389.909    -412.599
  O      361.626    -389.587    -410.164
  O      362.557    -387.636    -411.534
  H      363.037    -387.561    -410.680
  H      362.652    -391.689    -413.590
  H      361.036    -391.101    -413.279
  H      361.989    -391.770    -411.976

 6  7  8  9  10  11  12  13  14  15  25  28  32  33  34  35 0
 6-311+G(2d,p)
 ****
 36  39  40 0
 6-311+G(2d,p)
 ****
 1  2  3  4  5  16  17  18  19  20  21  22  23  24 0
 3-21G
 ****
 26  27  29  30  31  37  38  41  42  43  44  45  46  47 0
 3-21G
 ****
 48 0
 3-21G
 ****


