%nproc=1
%NoSave
%Mem=1900MB
#P OB98/GEN NMR

erre ene a

0 1
  C      108.757     -33.122     -66.039
  O      107.331     -33.082     -65.943
  P      106.515     -34.016     -66.959
  C      107.385     -36.261     -65.984
  O      106.262     -35.429     -66.246
  C      106.977     -37.732     -66.056
  O      108.126     -38.601     -66.165
  C      106.228     -38.213     -64.819
  O      104.893     -37.734     -64.813
  C      106.360     -39.724     -64.974
  O      105.403     -40.218     -65.926
  C      107.780     -39.864     -65.548
  N      112.731     -40.872     -64.739
  C      112.041     -40.577     -65.862
  N      110.722     -40.325     -65.995
  C      110.105     -40.385     -64.805
  C      110.675     -40.669     -63.574
  C      112.057     -40.925     -63.566
  N      112.758     -41.239     -62.423
  N      109.722     -40.643     -62.577
  C      108.592     -40.372     -63.198
  N      108.774     -40.196     -64.544
  O      107.589     -34.350     -68.097
  O      105.296     -33.364     -67.526
  H      105.464     -39.652     -66.722
  H      107.364     -33.874     -68.918
  H      112.626     -40.543     -66.778
  H      107.623     -40.295     -62.720
  H      107.839     -40.634     -66.325
  H      106.201     -40.267     -64.038
  H      106.746     -37.882     -63.911
  H      106.349     -37.869     -66.947
  H      107.798     -36.039     -64.997
  H      113.730     -41.487     -62.515
  H      112.251     -41.368     -61.558
  H      108.169     -36.032     -66.713
  P      104.300     -37.197     -63.424
  C      105.320     -34.843     -63.270
  O      104.190     -35.608     -63.648
  O      105.565     -37.327     -62.460
  O      103.054     -37.874     -62.967
  H      106.377     -36.988     -62.878
  H      105.126     -33.794     -63.505
  H      106.203     -35.176     -63.821
  H      105.492     -34.938     -62.194
  H      109.182     -32.460     -65.314
  H      109.057     -32.817     -67.020
  H      109.099     -34.119     -65.856

 3  4  5  6  7  8  9  10  11  12  22  25  29  30  31  32 0
 6-311+G(2d,p)
 ****
 33  36  37 0
 6-311+G(2d,p)
 ****
 1  2  13  14  15  16  17  18  19  20  21  23  24  26 0
 3-21G
 ****
 27  28  34  35  38  39  40  41  42  43  44  45  46  47  48 0
 3-21G
 ****


