%nproc=1
%NoSave
%Mem=1900MB
#P OB98/GEN NMR

erre ene a

0 1
  C      695.002     -33.575    -217.820
  O      696.138     -32.736    -217.870
  H      695.185     -34.368    -217.089
  H      694.818     -34.031    -218.797
  H      694.127     -32.999    -217.506
  P      696.089     -31.522    -218.918
  C      694.774     -29.304    -218.934
  O      695.313     -30.352    -218.135
  C      694.576     -28.044    -218.098
  O      693.620     -28.332    -217.043
  C      695.865     -27.546    -217.433
  O      695.881     -26.121    -217.449
  C      695.739     -28.033    -215.998
  O      696.492     -27.243    -215.088
  C      694.227     -27.984    -215.785
  N      694.975     -29.369    -210.932
  C      695.443     -28.331    -211.661
  N      695.179     -28.025    -212.946
  C      694.300     -28.898    -213.469
  C      693.744     -30.006    -212.856
  C      694.121     -30.235    -211.519
  N      693.672     -31.308    -210.783
  N      692.921     -30.685    -213.735
  C      692.970     -29.988    -214.857
  N      693.805     -28.912    -214.747
  O      695.549     -31.855    -220.269
  O      697.607     -31.008    -218.893
  H      696.155     -27.410    -214.178
  H      697.950     -30.963    -217.984
  H      696.122     -27.658    -211.139
  H      692.443     -30.230    -215.768
  H      693.878     -26.986    -215.487
  H      696.106     -29.066    -215.927
  H      696.760     -27.933    -217.916
  H      694.128     -27.264    -218.725
  H      693.810     -29.614    -219.358
  H      693.979     -31.392    -209.827
  H      693.013     -31.958    -211.198
  H      695.470     -29.112    -219.756
  P      696.854     -25.377    -218.494
  C      697.234     -25.563    -221.038
  O      696.289     -25.625    -219.974
  O      698.313     -25.629    -218.314
  O      696.503     -23.837    -218.248
  H      697.318     -23.310    -218.324
  H      696.737     -25.744    -221.968
  H      697.990     -26.305    -220.887
  H      697.685     -24.593    -221.058

 6  7  8  9  10  11  12  13  14  15  25  28  32  33  34  35 0
 6-311+G(2d,p)
 ****
 36  39  40 0
 6-311+G(2d,p)
 ****
 1  2  3  4  5  16  17  18  19  20  21  22  23  24 0
 3-21G
 ****
 26  27  29  30  31  37  38  41  42  43  44  45  46  47 0
 3-21G
 ****
 48 0
 3-21G
 ****


