%nproc=1
%NoSave
%Mem=1900MB
#P OB98/GEN NMR

erre ene a

0 1
  C      353.197     136.425     -86.765
  O      354.601     136.450     -86.925
  H      352.838     135.417     -86.988
  H      352.719     137.127     -87.453
  H      352.929     136.670     -85.734
  P      355.363     137.850     -86.767
  C      357.406     138.097     -88.333
  O      356.904     137.576     -87.111
  C      358.617     137.288     -88.816
  O      358.148     136.201     -89.662
  C      359.621     138.108     -89.641
  O      360.918     137.535     -89.429
  C      359.139     137.836     -91.053
  O      360.098     138.216     -92.008
  C      358.793     136.348     -90.945
  N      357.951     135.888     -92.038
  C      358.609     135.516     -93.212
  O      359.836     135.597     -93.289
  N      357.864     135.092     -94.281
  C      356.570     135.102     -94.206
  N      355.888     134.682     -95.305
  C      355.832     135.544     -93.004
  C      356.578     135.916     -91.965
  O      355.127     138.576     -85.485
  O      354.858     138.707     -88.023
  H      360.859     137.594     -92.008
  H      354.214     139.376     -87.727
  H      354.753     135.552     -93.000
  H      356.127     136.257     -91.038
  H      359.705     135.736     -90.926
  H      358.237     138.417     -91.269
  H      359.627     139.168     -89.375
  H      359.100     136.827     -87.946
  H      356.433     134.400     -96.111
  H      357.699     139.136     -88.152
  H      354.881     134.667     -95.372
  H      356.625     138.080     -89.099
  P      362.166     138.381     -88.886
  C      363.768     137.603     -90.753
  O      363.528     137.675     -89.350
  O      362.105     138.683     -87.422
  O      362.145     139.741     -89.734
  H      362.506     140.463     -89.185
  H      364.703     137.113     -90.930
  H      363.801     138.592     -91.160
  H      362.981     137.050     -91.222

 6  7  8  9  10  11  12  13  14  15  16  26  30  31  32  33  35 0
 6-311+G(2d,p)
 ****
 37  38 0
 6-311+G(2d,p)
 ****
 1  2  3  4  5  17  18  19  20  21  22  23  24  25 0
 3-21G
 ****
 27  28  29  34  36  39  40  41  42  43  44  45  46 0
 3-21G
 ****


