%nproc=1
%NoSave
%Mem=1900MB
#P OB98/GEN NMR

erre ene a

0 1
  C      -43.174     -65.960      34.549
  O      -42.987     -64.673      33.990
  H      -42.221     -66.494      34.524
  H      -43.908     -66.520      33.965
  H      -43.505     -65.874      35.587
  P      -44.273     -63.715      33.957
  C      -43.028     -61.594      33.150
  O      -43.933     -62.638      32.818
  C      -42.711     -60.750      31.918
  O      -41.846     -61.467      31.021
  C      -43.932     -60.361      31.094
  O      -44.596     -59.247      31.668
  C      -43.278     -60.005      29.768
  O      -42.720     -58.678      29.841
  C      -42.146     -61.043      29.664
  N      -41.370     -63.410      25.176
  C      -41.053     -62.169      25.602
  N      -41.327     -61.593      26.792
  C      -42.005     -62.438      27.586
  C      -42.398     -63.733      27.287
  C      -42.045     -64.224      26.020
  N      -42.361     -65.496      25.592
  N      -43.078     -64.295      28.348
  C      -43.047     -63.374      29.289
  N      -42.442     -62.218      28.865
  O      -44.711     -63.172      35.273
  O      -45.339     -64.661      33.224
  H      -42.280     -58.497      28.990
  H      -44.909     -65.175      32.517
  H      -40.503     -61.556      24.894
  H      -43.433     -63.497      30.294
  H      -41.232     -60.606      29.247
  H      -43.989     -60.005      28.940
  H      -44.603     -61.213      30.944
  H      -42.166     -59.859      32.253
  H      -42.103     -62.009      33.564
  H      -42.223     -65.706      24.616
  H      -42.969     -66.054      26.173
  H      -43.505     -60.978      33.918
  P      -46.178     -59.284      31.928
  C      -46.010     -57.769      33.999
  O      -46.547     -57.919      32.690
  O      -46.679     -60.519      32.592
  O      -46.828     -59.079      30.484
  H      -47.628     -59.633      30.390
  H      -46.320     -56.829      34.406
  H      -44.942     -57.803      33.952
  H      -46.365     -58.562      34.623

 6  7  8  9  10  11  12  13  14  15  25  28  32  33  34  35 0
 6-311+G(2d,p)
 ****
 36  39  40 0
 6-311+G(2d,p)
 ****
 1  2  3  4  5  16  17  18  19  20  21  22  23  24 0
 3-21G
 ****
 26  27  29  30  31  37  38  41  42  43  44  45  46  47 0
 3-21G
 ****
 48 0
 3-21G
 ****


