%nproc=1
%NoSave
%Mem=1900MB
#P OB98/GEN NMR

erre ene a

0 1
  C     -368.733    -860.953     -29.108
  O     -370.130    -861.004     -29.359
  H     -368.405    -861.927     -28.738
  H     -368.524    -860.198     -28.338
  H     -368.191    -860.716     -30.026
  P     -370.805    -859.660     -29.922
  C     -371.560    -860.540     -32.265
  O     -371.934    -860.133     -30.954
  C     -372.362    -861.761     -32.701
  O     -371.789    -862.951     -32.070
  C     -373.851    -861.712     -32.299
  O     -374.581    -862.476     -33.269
  C     -373.821    -862.468     -30.967
  O     -375.127    -862.834     -30.572
  C     -372.848    -863.595     -31.329
  N     -372.692    -868.045     -28.820
  C     -373.275    -867.684     -29.988
  N     -373.265    -866.497     -30.595
  C     -372.538    -865.600     -29.891
  C     -371.885    -865.816     -28.687
  C     -371.984    -867.108     -28.136
  N     -371.403    -867.469     -26.946
  N     -371.246    -864.658     -28.259
  C     -371.520    -863.763     -29.187
  N     -372.308    -864.290     -30.181
  O     -369.663    -859.043     -30.858
  O     -371.269    -858.685     -28.885
  H     -375.749    -862.081     -30.693
  H     -369.145    -858.391     -30.370
  H     -373.833    -868.477     -30.491
  H     -371.184    -862.739     -29.186
  H     -373.325    -864.340     -31.983
  H     -373.414    -861.832     -30.174
  H     -374.246    -860.706     -32.237
  H     -372.247    -861.900     -33.780
  H     -370.490    -860.773     -32.259
  H     -371.736    -859.713     -32.960
  H     -371.531    -868.415     -26.617
  H     -370.880    -866.774     -26.425
  P     -376.183    -862.282     -33.352
  C     -376.559    -861.563     -35.839
  O     -376.666    -862.590     -34.845
  O     -376.334    -860.688     -33.264
  O     -376.981    -862.943     -32.256
  H     -377.207    -860.452     -32.865
  H     -376.923    -861.933     -36.775
  H     -375.534    -861.274     -35.944
  H     -377.140    -860.715     -35.540

 6  7  8  9  10  11  12  13  14  15  25  28  32  33  34  35 0
 6-311+G(2d,p)
 ****
 36  37  40 0
 6-311+G(2d,p)
 ****
 1  2  3  4  5  16  17  18  19  20  21  22  23  24 0
 3-21G
 ****
 26  27  29  30  31  38  39 41  42  43  44  45  46  47  48 0
 3-21G
 ****


