%nproc=1
%NoSave
%Mem=1900MB
#P OB98/GEN NMR

erre ene a

0 1
  C     -186.457    -795.268    -409.369
  O     -186.723    -796.594    -408.897
  P     -186.878    -797.768    -409.984
  C     -186.265    -800.300    -410.090
  O     -186.503    -799.160    -409.268
  C     -185.555    -801.393    -409.283
  O     -184.197    -801.002    -408.936
  C     -186.249    -801.724    -407.958
  O     -187.324    -802.641    -408.161
  C     -185.128    -802.415    -407.195
  O     -184.991    -803.768    -407.648
  C     -183.892    -801.579    -407.625
  N     -180.908    -800.269    -403.762
  C     -180.957    -801.441    -404.489
  N     -180.076    -802.408    -404.134
  N     -181.794    -801.658    -405.462
  C     -182.611    -800.592    -405.723
  C     -182.660    -799.380    -405.064
  C     -181.739    -799.163    -403.970
  O     -181.663    -798.152    -403.285
  N     -183.620    -798.569    -405.597
  C     -184.138    -799.275    -406.586
  N     -183.577    -800.518    -406.691
  O     -185.634    -797.517    -410.965
  O     -188.182    -797.752    -410.727
  H     -184.856    -803.727    -408.618
  H     -185.837    -797.855    -411.868
  H     -180.249    -800.161    -403.005
  H     -184.931    -798.929    -407.245
  H     -182.996    -802.196    -407.759
  H     -185.311    -802.436    -406.122
  H     -179.361    -802.292    -403.428
  H     -186.571    -800.822    -407.440
  H     -180.076    -803.249    -404.688
  H     -185.502    -802.299    -409.892
  H     -185.650    -800.017    -410.952
  H     -187.213    -800.654    -410.500
  P     -188.813    -802.122    -407.873
  C     -190.920    -802.828    -409.216
  O     -189.798    -803.243    -408.465
  O     -188.966    -800.889    -408.891
  O     -189.074    -801.699    -406.462
  H     -189.557    -800.204    -408.522
  H     -191.386    -803.725    -409.679
  H     -190.632    -802.145    -410.023
  H     -191.665    -802.351    -408.571
  H     -186.381    -794.601    -408.536
  H     -187.254    -794.950    -410.008
  H     -185.537    -795.262    -409.916

 3  4  5  6  7  8  9  10  11  12  23  26  30  31 0
 6-311+G(2d,p)
 ****
 33  35  36  37  38 0
 6-311+G(2d,p)
 ****
 1  2  13  14  15  16  17  18  19  20  21  22  24  25 0
 3-21G
 ****
 27  28  29  32  34  39  40  41  42  43  44  45  46  47  48  49 0
 3-21G
 ****


