%nproc=1
%NoSave
%Mem=1900MB
#P OB98/GEN NMR

erre ene a

0 1
  C     -449.916     124.834    -512.440
  O     -449.354     124.937    -511.137
  P     -449.482     126.290    -510.276
  C     -448.145     128.502    -510.188
  O     -448.316     127.249    -510.822
  C     -446.790     129.122    -510.559
  O     -445.740     128.243    -510.085
  C     -446.581     129.310    -512.076
  O     -445.814     130.492    -512.251
  C     -445.778     128.085    -512.467
  O     -445.056     128.269    -513.676
  C     -444.908     127.906    -511.223
  N     -444.375     126.555    -511.093
  C     -443.011     126.370    -511.329
  O     -442.289     127.325    -511.660
  N     -442.479     125.118    -511.200
  C     -443.258     124.107    -510.924
  N     -442.669     122.883    -510.741
  C     -444.719     124.242    -510.771
  C     -445.198     125.476    -510.846
  O     -449.497     126.091    -508.799
  O     -450.800     127.003    -510.852
  H     -444.534     129.092    -513.604
  H     -451.630     126.679    -510.424
  H     -445.325     123.368    -510.584
  H     -446.257     125.673    -510.726
  H     -444.081     128.636    -511.227
  H     -446.461     127.227    -512.608
  H     -447.535     129.412    -512.625
  H     -446.694     130.079    -510.039
  H     -441.663     122.876    -510.685
  H     -448.173     128.355    -509.102
  H     -443.147     122.147    -510.227
  H     -448.971     129.176    -510.452
  P     -446.065     131.389    -513.576
  C     -444.568     131.779    -515.656
  O     -445.098     130.852    -514.726
  O     -445.360     132.781    -513.164
  O     -447.498     131.636    -513.944
  H     -445.784     133.496    -513.666
  H     -443.932     131.235    -516.362
  H     -443.968     132.539    -515.155
  H     -445.387     132.257    -516.216
  H     -449.721     123.860    -512.837
  H     -449.477     125.573    -513.077
  H     -450.973     124.992    -512.386

 3  4  5  6  7  8  9  10  11  12  13  23  27  28  29  30  32 0
 6-311+G(2d,p)
 ****
 34  35 0
 6-311+G(2d,p)
 ****
 1  2  14  15  16  17  18  19  20  21  22  24  25  26 0
 3-21G
 ****
 31  33  36  37  38  39  40  41  42  43  44  45  46 0
 3-21G
 ****


