%nproc=1
%NoSave
%Mem=1900MB
#P OB98/GEN NMR

erre ene a

0 1
  C      -75.271    -128.204    -252.727
  O      -74.919    -127.275    -253.746
  P      -75.951    -126.078    -254.047
  C      -78.148    -125.925    -255.433
  O      -76.933    -126.632    -255.189
  C      -78.741    -126.330    -256.779
  O      -77.876    -125.905    -257.853
  C      -78.924    -127.827    -256.966
  O      -80.116    -128.303    -256.357
  C      -79.028    -127.917    -258.480
  O      -80.358    -127.545    -258.901
  C      -78.014    -126.864    -258.936
  N      -75.329    -129.476    -262.421
  C      -76.637    -129.134    -262.364
  N      -77.279    -128.446    -261.396
  C      -76.434    -128.138    -260.393
  C      -75.088    -128.453    -260.299
  C      -74.529    -129.147    -261.380
  N      -73.188    -129.471    -261.456
  N      -74.559    -127.971    -259.123
  C      -75.561    -127.366    -258.521
  N      -76.716    -127.429    -259.251
  O      -75.045    -125.011    -254.826
  O      -76.608    -125.490    -252.845
  H      -80.376    -127.623    -259.877
  H      -75.434    -124.119    -254.743
  H      -77.244    -129.447    -263.207
  H      -75.500    -126.862    -257.566
  H      -78.355    -126.310    -259.817
  H      -78.845    -128.929    -258.860
  H      -78.042    -128.381    -256.626
  H      -79.702    -125.806    -256.895
  H      -77.937    -124.850    -255.441
  H      -72.829    -129.800    -262.338
  H      -72.560    -129.051    -260.781
  H      -78.854    -126.140    -254.623
  P      -79.994    -129.644    -255.482
  C      -79.037    -132.003    -256.017
  O      -79.573    -130.791    -256.517
  O      -81.519    -129.983    -255.127
  O      -79.144    -129.505    -254.262
  H      -81.568    -130.507    -254.303
  H      -79.101    -132.762    -256.801
  H      -79.602    -132.353    -255.146
  H      -77.986    -131.860    -255.744
  H      -74.500    -128.941    -252.634
  H      -76.193    -128.683    -252.984
  H      -75.384    -127.687    -251.797

 3  4  5  6  7  8  9  10  11  12  22  25  29  30  31  32 0
 6-311+G(2d,p)
 ****
 33  36  37 0
 6-311+G(2d,p)
 ****
 1  2  13  14  15  16  17  18  19  20  21  23  24  26 0
 3-21G
 ****
 27  28  34  35  38  39  40  41  42  43  44  45  46  47  48 0
 3-21G
 ****


