%nproc=1
%NoSave
%Mem=1900MB
#P OB98/GEN NMR

erre ene a

0 1
  C      -25.769     -51.862      55.115
  O      -25.075     -52.359      56.246
  P      -24.950     -53.945      56.429
  C      -26.949     -53.855      58.090
  O      -26.364     -54.486      56.962
  C      -27.945     -54.796      58.771
  O      -29.129     -54.937      57.930
  C      -27.396     -56.208      59.026
  O      -27.983     -56.687      60.244
  C      -27.950     -56.992      57.851
  O      -27.965     -58.394      58.072
  C      -29.336     -56.349      57.728
  N      -29.978     -56.624      56.444
  C      -30.928     -57.639      56.408
  O      -31.254     -58.311      57.385
  N      -31.464     -57.909      55.178
  C      -31.089     -57.344      53.994
  O      -31.525     -57.714      52.911
  C      -30.080     -56.277      54.093
  C      -29.579     -55.970      55.293
  O      -23.985     -54.093      57.697
  O      -24.422     -54.671      55.238
  H      -28.382     -58.808      57.295
  H      -23.075     -54.295      57.410
  H      -32.164     -58.634      55.135
  H      -29.774     -55.792      53.175
  H      -28.819     -55.202      55.392
  H      -29.986     -56.697      58.542
  H      -27.339     -56.797      56.963
  H      -26.304     -56.250      59.087
  H      -28.269     -54.339      59.714
  H      -27.473     -52.954      57.765
  H      -26.163     -53.552      58.791
  P      -27.010     -57.350      61.338
  C      -27.274     -59.734      60.299
  O      -26.414     -58.680      60.677
  O      -28.082     -57.893      62.400
  O      -26.022     -56.393      61.921
  H      -28.844     -58.320      61.976
  H      -28.237     -59.359      59.945
  H      -27.436     -60.394      61.154
  H      -26.802     -60.307      59.497
  H      -25.765     -50.792      55.136
  H      -26.779     -52.216      55.132
  H      -25.287     -52.203      54.223

 3  4  5  6  7  8  9  10  11  12  13  23  28  29  30  31  32 0
 6-311+G(2d,p)
 ****
 33  34 0
 6-311+G(2d,p)
 ****
 1  2  14  15  16  17  18  19  20  21  22  24  25  26 0
 3-21G
 ****
 27  35  36  37  38  39  40  41  42  43  44  45 0
 3-21G
 ****


