%nproc=1
%NoSave
%Mem=1900MB
#P OB98/GEN NMR

erre ene a

0 1
  C      101.315     275.892    -158.779
  O      100.583     276.014    -160.002
  P      100.219     274.660    -160.781
  C      101.317     275.033    -163.114
  O      101.368     274.364    -161.857
  C      102.021     274.197    -164.186
  O      103.444     274.166    -163.970
  C      101.588     272.742    -164.189
  O      100.330     272.596    -164.822
  C      102.737     272.070    -164.938
  O      102.497     272.033    -166.354
  C      103.943     272.977    -164.606
  N      104.935     272.307    -163.777
  C      105.592     271.225    -164.365
  O      105.306     270.870    -165.512
  N      106.540     270.553    -163.629
  C      106.784     270.920    -162.408
  N      107.733     270.216    -161.730
  C      106.095     272.043    -161.746
  C      105.187     272.687    -162.476
  O       98.966     275.082    -161.683
  O       99.887     273.515    -159.878
  H      103.330     271.703    -166.753
  H       98.358     274.329    -161.791
  H      106.331     272.306    -160.723
  H      104.629     273.522    -162.071
  H      104.439     273.300    -165.529
  H      102.868     271.033    -164.610
  H      101.543     272.362    -163.160
  H      101.822     274.649    -165.167
  H      108.182     269.452    -162.219
  H      101.789     276.015    -163.036
  H      107.996     270.411    -160.774
  H      100.269     275.211    -163.379
  P       99.119     272.015    -163.953
  C       99.916     269.577    -163.970
  O       99.730     270.739    -163.193
  O       98.203     271.324    -165.073
  O       98.346     272.981    -163.118
  H       97.371     271.008    -164.677
  H      100.520     268.866    -163.398
  H      100.442     269.812    -164.897
  H       98.950     269.117    -164.195
  H      101.488     276.865    -158.368
  H      102.253     275.414    -158.971
  H      100.752     275.306    -158.083

 3  4  5  6  7  8  9  10  11  12  13  21  23  27  28  29  30  32 0
 6-311+G(2d,p)
 ****
 34  35 0
 6-311+G(2d,p)
 ****
 1  2  14  15  16  17  18  19  20  22  24  25  26 0
 3-21G
 ****
 31  33  36  37  38  39  40  41  42  43  44  45  46 0
 3-21G
 ****


