%nproc=1
%NoSave
%Mem=1900MB
#P OB98/GEN NMR

erre ene a

0 1
  C      -39.698      24.374      68.523
  O      -38.684      24.818      69.400
  H      -39.803      23.292      68.631
  H      -39.438      24.598      67.485
  H      -40.652      24.842      68.779
  P      -38.255      26.364      69.348
  C      -40.522      26.966      70.447
  O      -39.652      27.161      69.344
  C      -40.994      28.313      70.991
  O      -41.847      28.137      72.140
  C      -39.878      29.235      71.474
  O      -39.141      29.829      70.420
  C      -40.696      30.250      72.256
  O      -41.357      31.143      71.341
  C      -41.719      29.329      72.966
  N      -41.316      28.970      74.323
  C      -42.323      28.972      75.298
  O      -43.480      29.267      75.001
  N      -41.987      28.678      76.597
  C      -40.754      28.423      76.901
  N      -40.467      28.184      78.211
  C      -39.666      28.392      75.905
  C      -40.011      28.676      74.651
  O      -37.296      26.748      68.267
  O      -37.712      26.675      70.820
  H      -41.853      30.590      70.712
  H      -37.421      27.620      70.837
  H      -38.653      28.181      76.214
  H      -39.264      28.690      73.866
  H      -42.707      29.802      73.003
  H      -40.093      30.863      72.931
  H      -39.214      28.712      72.170
  H      -41.600      28.790      70.211
  H      -41.230      28.256      78.871
  H      -39.981      26.402      71.213
  H      -39.519      28.254      78.564
  H      -41.400      26.393      70.137
  P      -37.860      30.719      70.807
  C      -36.396      28.709      71.583
  O      -37.063      29.908      71.939
  O      -38.507      31.944      71.602
  O      -37.009      31.162      69.660
  H      -38.673      32.702      71.008
  H      -35.918      28.297      72.447
  H      -35.661      28.919      70.835
  H      -37.106      28.007      71.199

 6  7  8  9  10  11  12  13  14  15  16  26  30  31  32  33  35 0
 6-311+G(2d,p)
 ****
 37  38 0
 6-311+G(2d,p)
 ****
 1  2  3  4  5  17  18  19  20  21  22  23  24  25 0
 3-21G
 ****
 27  28  29  34  36  39  40  41  42  43  44  45  46 0
 3-21G
 ****


