%nproc=1
%NoSave
%Mem=1900MB
#P OB98/GEN NMR

erre ene a

0 1
  C      -76.470     -22.973    -244.387
  O      -75.490     -22.761    -245.411
  P      -74.319     -21.709    -245.068
  C      -72.189     -23.181    -244.796
  O      -73.232     -22.460    -244.143
  C      -70.979     -23.385    -243.875
  O      -70.277     -22.134    -243.725
  C      -71.330     -23.875    -242.464
  O      -70.316     -24.792    -242.030
  C      -71.203     -22.624    -241.614
  O      -70.975     -22.923    -240.240
  C      -70.040     -21.930    -242.323
  N      -69.546     -18.467    -238.665
  C      -69.463     -19.841    -238.594
  N      -69.241     -20.368    -237.369
  N      -69.591     -20.628    -239.627
  C      -69.768     -19.962    -240.790
  C      -69.858     -18.605    -240.998
  C      -69.765     -17.745    -239.837
  O      -69.875     -16.528    -239.830
  N      -70.053     -18.306    -242.329
  C      -70.086     -19.484    -242.928
  N      -69.931     -20.522    -242.035
  O      -75.029     -20.684    -244.066
  O      -73.765     -21.012    -246.262
  H      -70.736     -22.086    -239.798
  H      -74.960     -19.779    -244.413
  H      -69.466     -17.903    -237.837
  H      -70.242     -19.645    -243.979
  H      -69.079     -22.405    -242.067
  H      -72.128     -22.040    -241.684
  H      -69.078     -19.816    -236.545
  H      -72.317     -24.342    -242.374
  H      -69.141     -21.375    -237.304
  H      -70.300     -24.091    -244.360
  H      -71.868     -22.631    -245.682
  H      -72.588     -24.146    -245.121
  P      -70.790     -25.986    -241.063
  C      -70.938     -27.352    -243.275
  O      -71.514     -27.054    -242.017
  O      -71.999     -25.337    -240.241
  O      -69.720     -26.518    -240.173
  H      -72.094     -25.770    -239.375
  H      -69.929     -26.944    -243.379
  H      -71.566     -26.932    -244.068
  H      -70.892     -28.442    -243.394
  H      -77.192     -23.686    -244.726
  H      -76.960     -22.048    -244.165
  H      -75.990     -23.343    -243.505

 3  4  5  6  7  8  9  10  11  12  23  26  30  31  33  0
 6-311+G(2d,p)
 ****
 35  36  37  38 0
 6-311+G(2d,p)
 ****
 1  2  13  14  15  16  17  18  19  20  21  22  24  25  27  28  29 0
 3-21G
 ****
 32  34  39  40  41  42  43  44  45  46  47  48  49 0
 3-21G
 ****


