%nproc=1
%NoSave
%Mem=1900MB
#P OB98/GEN NMR

erre ene a

0 1
  C      289.315    -182.476     172.378
  O      290.286    -182.833     173.342
  H      289.182    -183.316     171.690
  H      289.633    -181.601     171.805
  H      288.358    -182.271     172.868
  P      290.847    -181.680     174.308
  C      293.243    -182.537     173.865
  O      292.360    -181.417     173.831
  C      294.127    -182.575     172.613
  O      293.322    -182.840     171.448
  C      294.834    -181.261     172.323
  O      295.846    -180.932     173.250
  C      295.180    -181.397     170.846
  O      296.408    -182.079     170.612
  C      294.000    -182.250     170.318
  N      293.092    -181.470     169.486
  C      292.535    -182.146     168.403
  O      292.790    -183.320     168.129
  N      291.695    -181.415     167.610
  C      291.407    -180.091     167.761
  O      290.679    -179.477     166.994
  C      292.046    -179.421     168.910
  C      292.847    -180.134     169.707
  O      290.711    -181.939     175.780
  O      290.079    -180.364     173.816
  H      296.396    -182.383     169.684
  H      290.133    -179.646     174.492
  H      291.274    -181.889     166.828
  H      291.842    -178.369     169.060
  H      293.333    -179.661     170.558
  H      294.377    -183.084     169.714
  H      295.259    -180.419     170.361
  H      294.094    -180.457     172.388
  H      294.844    -183.396     172.724
  H      292.629    -183.444     173.901
  H      293.863    -182.491     174.766
  P      295.929    -179.522     173.992
  C      298.474    -179.316     173.494
  O      297.184    -178.712     173.398
  O      295.716    -179.526     175.474
  O      294.682    -178.739     173.330
  H      294.302    -178.159     174.015
  H      299.205    -178.666     173.060
  H      298.471    -180.249     172.970
  H      298.713    -179.485     174.523

 6  7  8  9  10  11  12  13  14  15  16  26  31  32  33  34  35 0
 6-311+G(2d,p)
 ****
 36  37 0
 6-311+G(2d,p)
 ****
 1  2  3  4  5  17  18  19  20  21  22  23  24  25 0
 3-21G
 ****
 27  28  29  30  38  39  40  41  42  43  44  45 0
 3-21G
 ****


