%nproc=1
%NoSave
%Mem=1900MB
#P OB98/GEN NMR

erre ene a

0 1
  C      646.784    -437.939    -350.325
  O      646.034    -438.985    -349.735
  H      647.358    -438.342    -351.158
  H      647.476    -437.505    -349.596
  H      646.116    -437.158    -350.705
  P      645.104    -438.638    -348.480
  C      646.191    -440.442    -346.980
  O      645.942    -439.059    -347.180
  C      646.943    -440.667    -345.676
  O      648.341    -440.339    -345.850
  C      646.437    -439.823    -344.514
  O      645.288    -440.413    -343.939
  C      647.650    -439.855    -343.602
  O      647.717    -441.124    -342.927
  C      648.802    -439.721    -344.616
  N      651.631    -435.800    -343.096
  C      651.422    -437.027    -342.497
  N      652.016    -437.217    -341.291
  N      650.682    -437.971    -343.014
  C      650.094    -437.609    -344.175
  C      650.213    -436.420    -344.856
  C      651.081    -435.407    -344.299
  O      651.307    -434.307    -344.817
  N      649.411    -436.394    -345.970
  C      648.838    -437.587    -345.982
  N      649.215    -438.351    -344.904
  O      643.717    -439.204    -348.503
  O      645.107    -437.038    -348.425
  H      646.961    -441.151    -342.314
  H      644.354    -436.667    -348.917
  H      652.204    -435.103    -342.631
  H      648.153    -437.939    -346.745
  H      649.704    -440.264    -344.292
  H      647.632    -439.075    -342.834
  H      652.355    -436.445    -340.739
  H      646.255    -438.779    -344.817
  H      651.842    -438.093    -340.818
  H      646.895    -441.737    -345.440
  H      646.776    -440.801    -347.829
  H      645.243    -441.000    -346.954
  P      644.364    -439.599    -342.896
  C      644.346    -441.698    -341.366
  O      644.638    -440.304    -341.480
  O      642.933    -439.500    -343.269
  O      645.102    -438.192    -342.727
  H      644.810    -437.516    -343.388
  H      644.575    -442.031    -340.375
  H      644.936    -442.245    -342.071
  H      643.308    -441.862    -341.566

 6  7  8  9  10  11  12  13  14  15  26  29  33  34 0
 6-311+G(2d,p)
 ****
 36  38  39  40  41 0
 6-311+G(2d,p)
 ****
 1  2  3  4  5  16  17  18  19  20  21  22  23  24  25 0
 3-21G
 ****
 27  28  30  31  32  35  37  42  43  44  45  46  47 0
 3-21G
 ****
 48  49 0
 3-21G
 ****


