%nproc=1
%NoSave
%Mem=1900MB
#P OB98/GEN NMR

erre ene a

0 1
  C      165.629      81.048    -456.291
  O      166.664      81.093    -455.332
  H      165.321      82.071    -456.522
  H      164.771      80.506    -455.888
  H      165.974      80.569    -457.212
  P      167.403      79.706    -455.004
  C      168.817      81.163    -453.389
  O      168.175      79.916    -453.613
  C      169.420      81.200    -451.986
  O      168.383      81.040    -450.988
  C      170.445      80.103    -451.714
  O      171.731      80.447    -452.212
  C      170.431      80.081    -450.195
  O      171.187      81.197    -449.685
  C      168.939      80.267    -449.890
  N      167.624      76.507    -446.753
  C      168.414      77.618    -446.523
  N      168.937      77.741    -445.286
  N      168.673      78.525    -447.430
  C      168.092      78.266    -448.625
  C      167.289      77.204    -448.971
  C      167.004      76.212    -447.961
  O      166.293      75.223    -448.100
  N      166.880      77.291    -450.276
  C      167.448      78.390    -450.725
  N      168.204      79.016    -449.764
  O      168.590      79.654    -456.081
  O      166.544      78.489    -455.087
  H      172.095      81.105    -450.031
  H      168.723      78.729    -456.358
  H      167.466      75.833    -446.024
  H      167.346      78.775    -451.730
  H      168.768      80.833    -448.969
  H      170.880      79.176    -449.783
  H      168.818      77.053    -444.558
  H      170.107      79.134    -452.100
  H      169.491      78.564    -445.083
  H      169.867      82.193    -451.837
  H      168.084      81.970    -453.487
  H      169.603      81.299    -454.138
  P      172.735      79.247    -452.572
  C      174.688      80.929    -452.239
  O      174.143      79.652    -451.920
  O      172.984      79.444    -454.140
  O      172.228      77.883    -452.250
  H      173.268      78.600    -454.544
  H      175.622      81.054    -451.733
  H      174.008      81.695    -451.928
  H      174.842      80.997    -453.296

 6  7  8  9  10  11  12  13  14  15  26  29  33  34 0
 6-311+G(2d,p)
 ****
 36  38  39  40  41 0
 6-311+G(2d,p)
 ****
 1  2  3  4  5  16  17  18  19  20  21  22  23  24  25 0
 3-21G
 ****
 27  28  30  31  32  35  37  42  43  44  45  46  47 0
 3-21G
 ****
 48  49 0
 3-21G
 ****


