%nproc=1
%NoSave
%Mem=1900MB
#P OB98/GEN NMR

erre ene a

0 1
  C        5.089    -180.759    -411.951
  O        5.926    -180.276    -412.990
  P        6.833    -178.967    -412.782
  C        8.061    -179.589    -414.968
  O        7.355    -178.588    -414.249
  C        8.326    -179.113    -416.394
  O        9.057    -177.871    -416.361
  C        9.167    -180.066    -417.232
  O        8.397    -181.174    -417.674
  C        9.660    -179.130    -418.328
  O        8.637    -178.936    -419.317
  C        9.886    -177.818    -417.546
  N       11.286    -177.599    -417.200
  C       12.174    -177.441    -418.267
  O       11.780    -177.477    -419.432
  N       13.498    -177.206    -417.991
  C       13.905    -177.159    -416.760
  N       15.214    -176.857    -416.546
  C       13.012    -177.376    -415.608
  C       11.730    -177.583    -415.897
  O        7.905    -179.104    -411.755
  O        5.789    -177.801    -412.473
  H        8.412    -179.820    -419.666
  H        5.570    -177.709    -411.513
  H       13.400    -177.340    -414.599
  H       11.006    -177.731    -415.106
  H        9.528    -176.963    -418.130
  H       10.558    -179.490    -418.841
  H       10.021    -180.434    -416.651
  H        7.358    -178.929    -416.880
  H       15.746    -176.544    -417.350
  H        7.445    -180.494    -415.001
  H       15.538    -176.522    -415.646
  H        8.995    -179.816    -414.448
  P        8.834    -182.631    -417.169
  C        6.305    -183.200    -417.101
  O        7.600    -183.601    -417.509
  O        8.805    -182.490    -415.576
  O       10.163    -183.085    -417.673
  H        9.710    -182.377    -415.228
  H        5.572    -183.832    -417.606
  H        6.118    -182.157    -417.374
  H        6.197    -183.329    -416.021
  H        4.572    -181.633    -412.287
  H        4.378    -180.004    -411.685
  H        5.686    -181.003    -411.097

 3  4  5  6  7  8  9  10  11  12  13  23  27  28  29  30  32 0
 6-311+G(2d,p)
 ****
 34  35 0
 6-311+G(2d,p)
 ****
 1  2  14  15  16  17  18  19  20  21  22  24  25  26 0
 3-21G
 ****
 31  33  36  37  38  39  40  41  42  43  44  45  46 0
 3-21G
 ****


