%nproc=1
%NoSave
%Mem=1900MB
#P OB98/GEN NMR

erre ene a

0 1
  C     1004.557     231.469    -511.977
  O     1005.461     230.355    -512.120
  P     1005.703     229.617    -513.517
  C     1004.462     227.459    -512.833
  O     1004.537     228.531    -513.766
  C     1003.037     226.917    -512.704
  O     1002.698     226.091    -513.830
  C     1002.769     226.053    -511.483
  O     1002.655     226.857    -510.310
  C     1001.496     225.342    -511.901
  O     1000.334     226.162    -511.656
  C     1001.715     225.130    -513.401
  N     1002.133     223.771    -513.725
  C     1001.192     222.759    -513.513
  O     1000.088     223.032    -513.025
  N     1001.519     221.460    -513.842
  C     1002.731     221.206    -514.266
  N     1002.985     219.909    -514.579
  C     1003.773     222.228    -514.421
  C     1003.409     223.475    -514.136
  O     1007.087     229.072    -513.674
  O     1005.410     230.721    -514.641
  H      999.594     225.719    -512.136
  H     1005.977     230.549    -515.412
  H     1004.762     221.948    -514.744
  H     1004.128     224.290    -514.229
  H     1000.798     225.361    -513.966
  H     1001.342     224.410    -511.336
  H     1003.586     225.330    -511.366
  H     1002.353     227.800    -512.716
  H     1002.239     219.230    -514.464
  H     1004.795     227.820    -511.855
  H     1003.881     219.583    -514.926
  H     1005.140     226.656    -513.155
  P     1003.811     226.791    -509.186
  C     1002.842     224.770    -507.948
  O     1003.923     225.286    -508.704
  O     1003.692     227.811    -508.105
  O     1005.163     227.015    -510.031
  H     1005.804     227.471    -509.467
  H     1002.846     223.677    -508.038
  H     1001.889     225.149    -508.334
  H     1002.970     225.058    -506.913
  H     1004.556     231.799    -510.959
  H     1003.569     231.165    -512.254
  H     1004.875     232.270    -512.612

 3  4  5  6  7  8  9  10  11  12  13  23  27  28  29  30  32 0
 6-311+G(2d,p)
 ****
 34  35 0
 6-311+G(2d,p)
 ****
 1  2  14  15  16  17  18  19  20  21  22  24  25  26 0
 3-21G
 ****
 31  33  36  37  38  39  40  41  42  43  44  45  46 0
 3-21G
 ****


