%nproc=1
%NoSave
%Mem=1900MB
#P OB98/GEN NMR

erre ene a

0 1
  C       86.080      -7.153     396.524
  O       86.943      -7.927     397.328
  H       85.683      -6.334     397.128
  H       85.245      -7.758     396.165
  H       86.626      -6.728     395.677
  P       87.616      -9.238     396.696
  C       89.851      -8.878     397.936
  O       88.732      -9.735     397.738
  C       90.491      -9.155     399.302
  O       89.626      -8.590     400.318
  C       90.654     -10.654     399.582
  O       91.982     -11.010     399.956
  C       89.531     -10.946     400.573
  O       89.770     -12.051     401.419
  C       89.349      -9.608     401.296
  N       88.017      -9.422     401.870
  C       87.917      -9.391     403.258
  O       88.862      -9.491     404.035
  N       86.651      -9.224     403.755
  C       85.507      -9.105     403.024
  O       84.400      -8.955     403.528
  C       85.672      -9.177     401.563
  C       86.900      -9.331     401.063
  O       88.091      -9.104     395.290
  O       86.479     -10.359     396.827
  H       89.964     -12.819     400.841
  H       86.082     -10.523     395.951
  H       86.568      -9.182     404.758
  H       84.784      -9.099     400.953
  H       87.059      -9.386     399.990
  H       90.073      -9.507     402.106
  H       88.620     -11.169     400.004
  H       90.484     -11.242     398.673
  H       91.451      -8.626     399.353
  H       89.497      -7.845     397.885
  H       90.586      -9.045     397.141
  P       92.784     -12.272     399.402
  C       95.131     -11.198     399.891
  O       94.237     -12.289     400.067
  O       92.717     -12.493     397.926
  O       92.056     -13.527     400.110
  H       92.119     -14.272     399.478
  H       96.045     -11.398     400.410
  H       94.687     -10.306     400.282
  H       95.334     -11.068     398.849

 6  7  8  9  10  11  12  13  14  15  16  26  31  32  33  34  35 0
 6-311+G(2d,p)
 ****
 36  37 0
 6-311+G(2d,p)
 ****
 1  2  3  4  5  17  18  19  20  21  22  23  24  25 0
 3-21G
 ****
 27  28  29  30  38  39  40  41  42  43  44  45 0
 3-21G
 ****


