%nproc=1
%NoSave
%Mem=1900MB
#P OB98/GEN NMR

erre ene a

0 1
  C      195.875      68.979    -312.503
  O      195.717      69.876    -313.582
  H      195.087      69.170    -311.772
  H      196.844      69.124    -312.017
  H      195.783      67.947    -312.851
  P      196.827      69.876    -314.742
  C      194.879      70.442    -316.355
  O      196.182      70.780    -315.906
  C      194.256      71.618    -317.103
  O      193.929      72.692    -316.197
  C      195.157      72.258    -318.155
  O      195.295      71.479    -319.330
  C      194.398      73.552    -318.398
  O      193.242      73.286    -319.213
  C      193.984      73.934    -316.955
  N      194.904      74.878    -316.326
  C      194.630      76.238    -316.509
  O      193.654      76.598    -317.168
  N      195.488      77.163    -315.968
  C      196.539      76.768    -315.321
  N      197.383      77.728    -314.847
  C      196.858      75.346    -315.091
  C      196.013      74.465    -315.618
  O      197.330      68.538    -315.175
  O      197.980      70.840    -314.189
  H      193.566      72.927    -320.059
  H      198.699      70.863    -314.867
  H      197.751      75.070    -314.551
  H      196.189      73.400    -315.507
  H      192.975      74.363    -316.941
  H      194.993      74.312    -318.914
  H      196.138      72.503    -317.732
  H      193.313      71.267    -317.540
  H      197.155      78.688    -315.059
  H      194.278      70.168    -315.483
  H      198.339      77.507    -314.587
  H      194.928      69.587    -317.037
  P      196.689      71.558    -320.127
  C      196.517      69.035    -320.750
  O      196.672      70.369    -321.204
  O      197.749      71.069    -319.038
  O      197.030      72.897    -320.702
  H      198.143      71.827    -318.562
  H      196.527      68.370    -321.588
  H      195.586      68.941    -320.231
  H      197.321      68.788    -320.089

 6  7  8  9  10  11  12  13  14  15  16  26  30  31  32  33  35 0
 6-311+G(2d,p)
 ****
 37  38 0
 6-311+G(2d,p)
 ****
 1  2  3  4  5  17  18  19  20  21  22  23  24  25 0
 3-21G
 ****
 27  28  29  34  36  39  40  41  42  43  44  45  46 0
 3-21G
 ****


