%nproc=1
%NoSave
%Mem=1900MB
#P OB98/GEN NMR

erre ene a

0 1
  C     -656.116    -661.287    -639.675
  O     -654.754    -661.365    -640.083
  P     -653.971    -660.004    -640.378
  C     -652.659    -660.377    -638.110
  O     -652.617    -660.066    -639.499
  C     -651.325    -660.038    -637.452
  O     -650.319    -661.020    -637.881
  C     -650.753    -658.648    -637.807
  O     -650.085    -658.155    -636.629
  C     -649.753    -658.946    -638.904
  O     -648.781    -657.942    -639.033
  C     -649.202    -660.318    -638.411
  N     -648.563    -661.079    -639.487
  C     -647.600    -662.020    -639.138
  O     -647.230    -662.218    -637.971
  N     -647.041    -662.714    -640.175
  C     -647.292    -662.518    -641.524
  O     -646.750    -663.165    -642.398
  C     -648.288    -661.486    -641.821
  C     -648.873    -660.836    -640.815
  O     -654.875    -658.937    -639.606
  O     -653.751    -659.725    -641.828
  H     -655.264    -659.295    -638.788
  H     -648.113    -658.233    -639.676
  H     -646.362    -663.426    -639.942
  H     -648.500    -661.288    -642.864
  H     -649.612    -660.048    -641.025
  H     -648.487    -660.157    -637.597
  H     -650.293    -659.065    -639.853
  H     -651.563    -657.956    -638.112
  H     -651.438    -660.162    -636.361
  H     -652.874    -661.441    -637.992
  H     -653.487    -659.819    -637.640
  P     -649.998    -656.556    -636.424
  C     -651.043    -656.635    -634.027
  O     -649.943    -656.290    -634.852
  O     -651.490    -656.117    -636.815
  O     -648.966    -655.876    -637.258
  H     -652.170    -656.670    -636.375
  H     -650.686    -656.690    -632.970
  H     -651.450    -657.618    -634.297
  H     -651.820    -655.874    -634.092
  H     -656.498    -662.274    -639.517
  H     -656.689    -660.800    -640.436
  H     -656.184    -660.728    -638.765

 3  4  5  6  7  8  9  10  11  12  13  24  28  29  30  31  32 0
 6-311+G(2d,p)
 ****
 33  34 0
 6-311+G(2d,p)
 ****
 1  2  14  15  16  17  18  19  20  21  22  23  25  26  27 0
 3-21G
 ****
 35  36  37  38  39  40  41  42  43  44  45 0
 3-21G
 ****


