%nproc=1
%NoSave
%Mem=1900MB
#P OB98/GEN NMR

erre ene a

0 1
  C     -320.777     563.302     104.295
  O     -321.721     563.188     103.248
  H     -321.301     563.593     105.211
  H     -320.028     564.065     104.064
  H     -320.287     562.340     104.464
  P     -321.169     563.045     101.747
  C     -320.592     560.576     102.206
  O     -320.096     561.848     101.797
  C     -319.462     559.544     102.284
  O     -319.977     558.259     102.700
  C     -318.769     559.278     100.958
  O     -318.034     560.365     100.449
  C     -318.065     557.958     101.233
  O     -316.820     558.140     101.915
  C     -319.080     557.254     102.167
  N     -319.813     556.190     101.486
  C     -319.037     555.175     100.934
  O     -317.806     555.158     100.982
  N     -319.727     554.186     100.292
  C     -321.077     554.137     100.107
  O     -321.633     553.225      99.503
  C     -321.841     555.258     100.679
  C     -321.183     556.218     101.332
  O     -320.642     564.306     101.128
  O     -322.396     562.401     100.948
  H     -316.290     558.755     101.373
  H     -322.273     562.487      99.970
  H     -319.186     553.429      99.902
  H     -322.913     555.256     100.545
  H     -321.728     557.059     101.768
  H     -318.564     556.812     103.028
  H     -317.854     557.408     100.316
  H     -319.541     559.066     100.207
  H     -318.749     559.876     103.048
  H     -321.327     560.249     101.464
  H     -321.084     560.670     103.180
  P     -317.092     560.275      99.164
  C     -318.850     561.201      97.463
  O     -318.019     560.117      97.866
  O     -315.885     559.407      99.274
  O     -316.583     561.803      99.027
  H     -315.669     561.774      98.679
  H     -319.396     560.925      96.585
  H     -318.243     562.056      97.251
  H     -319.536     561.436      98.250

 6  7  8  9  10  11  12  13  14  15  16  26  31  32  33  34  35 0
 6-311+G(2d,p)
 ****
 36  37 0
 6-311+G(2d,p)
 ****
 1  2  3  4  5  17  18  19  20  21  22  23  24  25 0
 3-21G
 ****
 27  28  29  30  38  39  40  41  42  43  44  45 0
 3-21G
 ****


