%nproc=1
%NoSave
%Mem=1900MB
#P OB98/GEN NMR

erre ene a

0 1
  C     -329.246     -47.652    -261.754
  O     -328.428     -46.563    -262.191
  P     -327.304     -46.882    -263.295
  C     -326.870     -44.479    -264.239
  O     -326.419     -45.546    -263.418
  C     -327.802     -43.547    -263.455
  O     -327.051     -42.873    -262.399
  C     -328.473     -42.467    -264.307
  O     -329.802     -42.292    -263.786
  C     -327.638     -41.232    -264.024
  O     -328.342     -40.030    -264.298
  C     -327.290     -41.458    -262.548
  N     -326.139     -40.669    -262.111
  C     -326.337     -39.302    -261.958
  O     -327.394     -38.740    -262.252
  N     -325.259     -38.588    -261.504
  C     -324.012     -39.091    -261.267
  O     -323.080     -38.408    -260.857
  C     -323.832     -40.524    -261.553
  C     -324.889     -41.235    -261.956
  O     -328.175     -46.906    -264.634
  O     -326.542     -48.132    -263.006
  H     -328.893     -46.250    -264.645
  H     -327.763     -39.268    -264.093
  H     -325.388     -37.602    -261.357
  H     -322.841     -40.945    -261.433
  H     -324.788     -42.284    -262.199
  H     -328.144     -41.207    -261.911
  H     -326.728     -41.248    -264.642
  H     -328.527     -42.727    -265.366
  H     -328.565     -44.161    -262.964
  H     -327.417     -44.879    -265.099
  H     -326.005     -43.938    -264.632
  P     -331.023     -43.026    -264.543
  C     -332.729     -43.517    -262.626
  O     -332.353     -42.705    -263.713
  O     -330.712     -44.553    -264.157
  O     -331.073     -42.800    -266.018
  H     -330.522     -44.674    -263.214
  H     -333.514     -43.001    -262.056
  H     -331.885     -43.700    -261.955
  H     -333.128     -44.467    -262.987
  H     -329.946     -47.302    -261.024
  H     -328.628     -48.410    -261.320
  H     -329.776     -48.058    -262.590

 3  4  5  6  7  8  9  10  11  12  13  24  28  29  30  31  32 0
 6-311+G(2d,p)
 ****
 33  34 0
 6-311+G(2d,p)
 ****
 1  2  14  15  16  17  18  19  20  21  22  23  25  26  27 0
 3-21G
 ****
 35  36  37  38  39  40  41  42  43  44  45 0
 3-21G
 ****


