%nproc=1
%NoSave
%Mem=1900MB
#P OB98/GEN NMR

erre ene a

0 1
  C      117.089    -290.259     190.232
  O      115.782    -289.698     190.195
  P      114.629    -290.405     191.055
  C      115.233    -289.127     193.229
  O      115.109    -290.389     192.588
  C      114.252    -289.002     194.394
  O      114.637    -287.869     195.218
  C      112.791    -288.785     193.978
  O      111.968    -289.427     194.957
  C      112.623    -287.281     194.096
  O      111.255    -286.898     194.219
  C      113.484    -287.006     195.327
  N      111.936    -282.205     196.156
  C      111.269    -283.380     196.176
  N      111.751    -284.618     195.946
  C      113.066    -284.573     195.668
  C      113.867    -283.445     195.577
  C      113.252    -282.211     195.842
  N      113.929    -281.014     195.832
  N      115.159    -283.799     195.244
  C      115.138    -285.111     195.134
  N      113.900    -285.622     195.406
  O      114.773    -291.943     190.635
  O      113.249    -289.901     190.807
  H      111.218    -285.926     194.308
  H      113.995    -292.221     190.112
  H      110.211    -283.315     196.416
  H      115.980    -285.730     194.864
  H      112.963    -287.256     196.261
  H      113.033    -286.789     193.205
  H      112.552    -289.156     192.975
  H      114.341    -289.899     195.019
  H      115.013    -288.341     192.502
  H      113.452    -280.193     196.165
  H      114.943    -281.028     195.788
  H      116.259    -288.997     193.583
  P      110.430    -289.663     194.573
  C      110.724    -292.132     193.832
  O      110.406    -290.807     193.453
  O      110.041    -288.333     193.770
  O      109.536    -289.881     195.749
  H      109.086    -288.155     193.864
  H      110.140    -292.824     193.222
  H      110.508    -292.319     194.890
  H      111.790    -292.310     193.650
  H      117.743    -289.681     189.613
  H      117.055    -291.266     189.872
  H      117.452    -290.252     191.239

 3  4  5  6  7  8  9  10  11  12  22  25  29  30  31  32 0
 6-311+G(2d,p)
 ****
 33  36  37 0
 6-311+G(2d,p)
 ****
 1  2  13  14  15  16  17  18  19  20  21  23  24  26 0
 3-21G
 ****
 27  28  34  35  38  39  40  41  42  43  44  45  46  47  48 0
 3-21G
 ****


