%nproc=1
%NoSave
%Mem=1900MB
#P OB98/GEN NMR

erre ene a

0 1
  C      207.819     208.808    -175.396
  O      208.410     208.307    -176.578
  H      207.104     208.069    -175.022
  H      207.287     209.743    -175.590
  H      208.585     208.970    -174.633
  P      209.303     209.310    -177.459
  C      207.468     210.905    -178.331
  O      208.337     209.818    -178.641
  C      206.597     211.269    -179.537
  O      207.411     211.846    -180.580
  C      205.911     210.076    -180.182
  O      204.894     209.499    -179.391
  C      205.578     210.600    -181.571
  O      204.342     211.306    -181.629
  C      206.751     211.575    -181.834
  N      207.676     211.060    -182.835
  C      207.280     211.210    -184.160
  O      206.211     211.719    -184.496
  N      208.139     210.712    -185.099
  C      209.304     210.049    -184.843
  O      210.011     209.588    -185.732
  C      209.657     209.898    -183.424
  C      208.840     210.404    -182.497
  O      210.613     208.764    -177.942
  O      209.448     210.605    -176.531
  H      203.632     210.635    -181.669
  H      210.185     211.183    -176.841
  H      207.874     210.819    -186.066
  H      210.574     209.374    -183.185
  H      209.079     210.303    -181.441
  H      206.367     212.539    -182.197
  H      205.517     209.789    -182.300
  H      206.663     209.289    -180.324
  H      205.867     212.023    -179.220
  H      208.092     211.763    -178.066
  H      206.841     210.644    -177.473
  P      204.781     207.929    -179.118
  C      203.947     207.487    -181.540
  O      203.706     207.318    -180.148
  O      204.728     207.494    -177.688
  O      206.175     207.398    -179.731
  H      206.466     206.642    -179.186
  H      203.154     207.033    -182.097
  H      204.876     207.025    -181.800
  H      203.992     208.531    -181.770

 6  7  8  9  10  11  12  13  14  15  16  26  31  32  33  34  35 0
 6-311+G(2d,p)
 ****
 36  37 0
 6-311+G(2d,p)
 ****
 1  2  3  4  5  17  18  19  20  21  22  23  24  25 0
 3-21G
 ****
 27  28  29  30  38  39  40  41  42  43  44  45 0
 3-21G
 ****


