%nproc=1
%NoSave
%Mem=1900MB
#P OB98/GEN NMR

erre ene a

0 1
  C      -54.373       3.992     297.520
  O      -54.193       4.616     298.775
  H      -53.392       3.838     297.066
  H      -54.967       4.629     296.859
  H      -54.858       3.020     297.640
  P      -55.494       4.959     299.652
  C      -56.030       7.492     299.529
  O      -56.152       6.222     298.902
  C      -54.618       8.039     299.339
  O      -54.298       8.197     297.937
  C      -54.380       9.421     299.940
  O      -54.282       9.422     301.353
  C      -53.063       9.774     299.270
  O      -51.991       9.049     299.902
  C      -53.316       9.266     297.834
  N      -53.796      10.318     296.938
  C      -52.863      10.849     296.035
  O      -51.705      10.441     296.022
  N      -53.263      11.859     295.190
  C      -54.475      12.316     295.258
  N      -54.813      13.323     294.399
  C      -55.482      11.803     296.207
  C      -55.081      10.816     297.005
  O      -55.267       5.128     301.121
  O      -56.536       3.795     299.298
  H      -52.128       9.123     300.866
  H      -57.356       3.956     299.823
  H      -56.472      12.239     296.243
  H      -55.763      10.387     297.733
  H      -52.403       8.828     297.409
  H      -52.816      10.835     299.336
  H      -55.144      10.132     299.599
  H      -53.920       7.298     299.749
  H      -54.100      13.656     293.762
  H      -56.266       7.375     300.590
  H      -55.708      13.788     294.434
  H      -56.733       8.196     299.082
  P      -54.442      10.843     302.093
  C      -52.139      11.849     302.825
  O      -53.093      11.655     301.788
  O      -54.326      10.459     303.641
  O      -55.700      11.593     301.778
  H      -55.212      10.394     304.049
  H      -51.309      12.407     302.446
  H      -51.798      10.898     303.179
  H      -52.593      12.388     303.631

 6  7  8  9  10  11  12  13  14  15  16  26  30  31  32  33  35 0
 6-311+G(2d,p)
 ****
 37  38 0
 6-311+G(2d,p)
 ****
 1  2  3  4  5  17  18  19  20  21  22  23  24  25 0
 3-21G
 ****
 27  28  29  34  36  39  40  41  42  43  44  45  46 0
 3-21G
 ****


