%nproc=1
%NoSave
%Mem=1900MB
#P OB98/GEN NMR

erre ene a

0 1
  C     -892.338    -281.751       6.139
  O     -892.028    -281.729       7.520
  P     -891.549    -280.334       8.157
  C     -889.315    -281.532       8.846
  O     -889.954    -280.410       8.254
  C     -888.120    -281.977       7.989
  O     -888.588    -282.430       6.698
  C     -887.111    -280.876       7.688
  O     -886.267    -280.621       8.798
  C     -886.403    -281.457       6.465
  O     -885.415    -282.429       6.880
  C     -887.556    -282.162       5.727
  N     -888.081    -281.387       4.604
  C     -887.527    -281.671       3.359
  O     -886.651    -282.519       3.180
  N     -888.002    -280.915       2.309
  C     -888.907    -279.904       2.397
  O     -889.269    -279.232       1.445
  C     -889.423    -279.621       3.752
  C     -889.006    -280.371       4.770
  O     -892.062    -280.500       9.660
  O     -892.097    -279.145       7.428
  H     -892.104    -281.441       9.923
  H     -885.046    -282.815       6.062
  H     -887.637    -281.118       1.391
  H     -890.143    -278.823       3.866
  H     -889.364    -280.177       5.772
  H     -887.226    -283.140       5.354
  H     -885.885    -280.696       5.880
  H     -887.643    -279.966       7.398
  H     -887.643    -282.826       8.492
  H     -890.031    -282.359       8.929
  H     -888.978    -281.262       9.855
  P     -886.461    -279.197       9.517
  C     -884.227    -278.171       8.631
  O     -885.634    -278.127       8.643
  O     -885.561    -279.397      10.845
  O     -887.885    -278.831       9.792
  H     -884.730    -279.848      10.665
  H     -883.874    -277.639       7.747
  H     -883.851    -279.207       8.604
  H     -883.832    -277.674       9.517
  H     -892.640    -282.738       5.857
  H     -891.474    -281.467       5.575
  H     -893.134    -281.064       5.941

 3  4  5  6  7  8  9  10  11  12  13  24  28  29  30  31  32 0
 6-311+G(2d,p)
 ****
 33  34 0
 6-311+G(2d,p)
 ****
 1  2  14  15  16  17  18  19  20  21  22  23  25  26  27 0
 3-21G
 ****
 35  36  37  38  39  40  41  42  43  44  45 0
 3-21G
 ****


