%nproc=1
%NoSave
%Mem=1900MB
#P OB98/GEN NMR

erre ene a

0 1
  C     -667.275    2758.501     150.540
  O     -667.630    2759.181     149.366
  P     -668.893    2758.655     148.490
  C     -670.145    2760.907     148.402
  O     -670.154    2759.558     148.856
  C     -671.417    2761.659     148.794
  O     -672.607    2761.013     148.218
  C     -671.661    2761.805     150.264
  O     -672.259    2763.129     150.487
  C     -672.633    2760.722     150.549
  O     -673.323    2760.903     151.771
  C     -673.519    2760.786     149.283
  N     -674.313    2759.577     149.069
  C     -675.602    2759.562     149.554
  O     -676.004    2760.514     150.249
  N     -676.441    2758.483     149.286
  C     -675.892    2757.443     148.694
  N     -676.713    2756.368     148.427
  C     -674.455    2757.368     148.318
  C     -673.739    2758.450     148.514
  O     -669.102    2757.175     148.542
  O     -668.513    2759.137     147.007
  H     -673.711    2761.824     151.813
  H     -668.883    2758.489     146.389
  H     -674.043    2756.449     147.930
  H     -672.688    2758.488     148.261
  H     -674.207    2761.662     149.342
  H     -672.145    2759.728     150.613
  H     -670.758    2761.763     150.874
  H     -671.371    2762.664     148.300
  H     -677.695    2756.437     148.750
  H     -670.022    2760.880     147.296
  H     -676.394    2755.521     147.921
  H     -669.260    2761.417     148.770
  P     -671.313    2764.291     151.007
  C     -670.576    2765.211     148.709
  O     -670.200    2764.605     149.896
  O     -670.470    2763.594     152.179
  O     -672.044    2765.513     151.604
  H     -670.229    2764.275     152.842
  H     -669.669    2765.583     148.200
  H     -671.255    2766.066     148.888
  H     -671.085    2764.542     148.043
  H     -666.428    2758.979     150.987
  H     -667.029    2757.487     150.304
  H     -668.097    2758.519     151.225

 3  4  5  6  7  8  9  10  11  12  13  23  27  28  29  30  32 0
 6-311+G(2d,p)
 ****
 34  35 0
 6-311+G(2d,p)
 ****
 1  2  14  15  16  17  18  19  20  21  22  24  25  26 0
 3-21G
 ****
 31  33  36  37  38  39  40  41  42  43  44  45  46 0
 3-21G
 ****


