%nproc=1
%NoSave
%Mem=1900MB
#P OB98/GEN NMR

erre ene a

0 1
  C      157.074    -337.114    -105.759
  O      156.231    -336.045    -105.308
  P      156.539    -335.411    -103.868
  C      158.852    -334.226    -103.836
  O      157.454    -334.103    -104.065
  C      159.647    -333.164    -104.616
  O      159.431    -333.306    -106.045
  C      159.252    -331.721    -104.256
  O      160.407    -330.887    -104.422
  C      158.237    -331.381    -105.325
  O      158.057    -329.963    -105.444
  C      158.864    -332.066    -106.536
  N      156.622    -330.096    -110.602
  C      157.538    -329.535    -109.728
  N      157.938    -328.276    -110.009
  N      158.016    -330.157    -108.681
  C      157.546    -331.425    -108.557
  C      156.636    -332.090    -109.345
  C      156.096    -331.379    -110.484
  O      155.271    -331.816    -111.289
  N      156.396    -333.358    -108.881
  C      157.158    -333.456    -107.802
  N      157.902    -332.328    -107.591
  O      157.552    -336.479    -103.218
  O      155.326    -335.227    -103.017
  H      158.950    -329.562    -105.527
  H      157.092    -336.972    -102.510
  H      156.273    -329.567    -111.386
  H      157.209    -334.321    -107.155
  H      159.680    -331.473    -106.979
  H      157.267    -331.823    -105.075
  H      157.648    -327.758    -110.823
  H      158.861    -331.593    -103.240
  H      158.640    -327.854    -109.405
  H      160.711    -333.316    -104.423
  H      159.199    -335.222    -104.133
  H      159.044    -334.154    -102.760
  P      160.902    -330.067    -103.140
  C      161.238    -332.026    -101.473
  O      161.841    -331.065    -102.310
  O      159.585    -329.946    -102.232
  O      161.495    -328.727    -103.443
  H      159.643    -329.171    -101.650
  H      161.278    -333.008    -101.961
  H      160.189    -331.779    -101.250
  H      161.788    -332.074    -100.522
  H      156.754    -337.436    -106.728
  H      157.011    -337.932    -105.072
  H      158.086    -336.771    -105.813

 3  4  5  6  7  8  9  10  11  12  23  26  30  31 0
 6-311+G(2d,p)
 ****
 33  35  36  37  38 0
 6-311+G(2d,p)
 ****
 1  2  13  14  15  16  17  18  19  20  21  22  24  25 0
 3-21G
 ****
 27  28  29  32  34  39  40  41  42  43  44  45  46  47  48  49 0
 3-21G
 ****


