%nproc=1
%NoSave
%Mem=1900MB
#P OB98/GEN NMR

erre ene a

0 1
  C     -737.806    -858.964    1399.493
  O     -739.046    -859.564    1399.844
  P     -739.573    -860.988    1399.365
  C     -741.157    -860.297    1397.349
  O     -741.003    -860.806    1398.676
  C     -742.127    -859.116    1397.302
  O     -743.412    -859.515    1397.839
  C     -741.655    -857.923    1398.159
  O     -741.824    -856.653    1397.548
  C     -742.355    -858.141    1399.498
  O     -742.449    -856.999    1400.300
  C     -743.685    -858.753    1399.017
  N     -747.056    -858.979    1402.878
  C     -746.573    -857.878    1402.189
  N     -747.049    -856.667    1402.599
  N     -745.708    -857.941    1401.208
  C     -745.268    -859.204    1400.988
  C     -745.659    -860.360    1401.586
  C     -746.660    -860.283    1402.624
  O     -747.121    -861.229    1403.276
  N     -744.998    -861.455    1401.060
  C     -744.213    -860.942    1400.145
  N     -744.345    -859.556    1400.052
  O     -739.434    -862.093    1400.339
  O     -738.626    -861.331    1398.086
  H     -741.523    -856.760    1400.595
  H     -738.531    -862.310    1398.082
  H     -747.735    -858.889    1403.596
  H     -743.532    -861.506    1399.516
  H     -744.430    -857.988    1398.773
  H     -741.780    -858.907    1400.064
  H     -747.618    -856.527    1403.424
  H     -740.553    -857.962    1398.329
  H     -746.511    -855.859    1402.246
  H     -742.250    -858.809    1396.239
  H     -741.557    -861.137    1396.760
  H     -740.165    -860.025    1396.944
  P     -740.812    -855.813    1396.620
  C     -740.034    -854.102    1398.367
  O     -740.747    -854.319    1397.096
  O     -741.567    -855.704    1395.179
  O     -739.458    -856.488    1396.429
  H     -741.044    -856.169    1394.505
  H     -740.295    -853.079    1398.720
  H     -738.962    -854.154    1398.160
  H     -740.332    -854.837    1399.109
  H     -737.727    -858.007    1399.964
  H     -737.756    -858.844    1398.431
  H     -737.002    -859.590    1399.819

 3  4  5  6  7  8  9  10  11  12  23  26  30  31 0
 6-311+G(2d,p)
 ****
 33  35  36  37  38 0
 6-311+G(2d,p)
 ****
 1  2  13  14  15  16  17  18  19  20  21  22  24  25 0
 3-21G
 ****
 27  28  29  32  34  39  40  41  42  43  44  45  46  47  48  49 0
 3-21G
 ****


