%nproc=1
%NoSave
%Mem=1900MB
#P OB98/GEN NMR

erre ene a

0 1
  C     -902.499    -366.017     207.524
  O     -901.684    -365.341     208.464
  P     -900.101    -365.489     208.305
  C     -899.492    -363.028     208.960
  O     -899.422    -364.416     209.292
  C     -899.018    -362.184     210.148
  O     -899.981    -362.267     211.225
  C     -897.704    -362.654     210.738
  O     -896.594    -362.215     209.961
  C     -897.738    -362.023     212.128
  O     -897.310    -360.663     212.088
  C     -899.250    -362.120     212.472
  N     -899.549    -363.190     213.408
  C     -899.563    -362.844     214.754
  O     -899.312    -361.700     215.146
  N     -899.836    -363.856     215.634
  C     -900.030    -365.178     215.315
  O     -900.211    -366.054     216.151
  C     -899.970    -365.498     213.871
  C     -899.732    -364.509     213.003
  O     -899.787    -364.908     206.851
  O     -899.586    -366.879     208.479
  H     -897.985    -360.174     211.566
  H     -899.059    -365.417     206.446
  H     -899.870    -363.617     216.613
  H     -900.127    -366.518     213.580
  H     -899.669    -364.716     211.946
  H     -899.587    -361.165     212.906
  H     -897.098    -362.548     212.845
  H     -897.695    -363.744     210.836
  H     -898.950    -361.141     209.821
  H     -900.529    -362.768     208.708
  H     -898.864    -362.846     208.076
  P     -895.182    -362.938     210.221
  C     -894.312    -362.756     207.756
  O     -894.205    -362.343     209.108
  O     -895.524    -364.424     209.734
  O     -894.725    -362.844     211.649
  H     -896.165    -364.449     209.004
  H     -895.373    -362.924     207.492
  H     -893.751    -363.674     207.602
  H     -893.909    -361.979     207.118
  H     -903.529    -365.833     207.747
  H     -902.306    -367.068     207.575
  H     -902.278    -365.661     206.539

 3  4  5  6  7  8  9  10  11  12  13  23  28  29  30  31  32 0
 6-311+G(2d,p)
 ****
 33  34 0
 6-311+G(2d,p)
 ****
 1  2  14  15  16  17  18  19  20  21  22  24  25  26 0
 3-21G
 ****
 27  35  36  37  38  39  40  41  42  43  44  45 0
 3-21G
 ****


