%nproc=1
%NoSave
%Mem=1900MB
#P OB98/GEN NMR

erre ene a

0 1
  C     -606.844     838.531    -534.831
  O     -607.330     839.837    -535.029
  H     -606.364     838.480    -533.850
  H     -606.105     838.289    -535.599
  H     -607.655     837.795    -534.861
  P     -608.440     840.090    -536.150
  C     -610.314     839.199    -534.620
  O     -609.654     839.074    -535.870
  C     -611.832     839.305    -534.780
  O     -612.173     840.565    -535.412
  C     -612.401     838.218    -535.692
  O     -612.668     836.979    -535.052
  C     -613.685     838.861    -536.187
  O     -614.763     838.651    -535.254
  C     -613.316     840.345    -536.256
  N     -615.089     841.261    -540.970
  C     -615.749     840.716    -539.880
  N     -617.014     840.322    -540.088
  N     -615.196     840.569    -538.703
  C     -613.888     840.924    -538.658
  C     -613.126     841.464    -539.673
  C     -613.762     841.678    -540.960
  O     -613.220     842.149    -541.955
  N     -611.841     841.705    -539.263
  C     -611.806     841.248    -538.027
  N     -613.035     840.789    -537.610
  O     -607.780     839.474    -537.479
  O     -608.838     841.519    -536.359
  H     -615.580     839.009    -535.648
  H     -608.147     839.916    -538.266
  H     -615.569     841.384    -541.839
  H     -610.929     841.246    -537.382
  H     -614.126     840.979    -535.875
  H     -614.014     838.436    -537.144
  H     -617.440     840.305    -541.003
  H     -611.744     838.050    -536.546
  H     -617.437     839.679    -539.410
  H     -612.308     839.296    -533.792
  H     -609.925     840.099    -534.141
  H     -610.060     838.352    -533.971
  P     -612.227     835.605    -535.748
  C     -610.837     834.273    -533.997
  O     -610.831     835.165    -535.090
  O     -611.816     836.080    -537.226
  O     -613.274     834.551    -535.776
  H     -612.562     835.940    -537.838
  H     -609.831     834.087    -533.683
  H     -611.295     833.352    -534.291
  H     -611.389     834.704    -533.188

 6  7  8  9  10  11  12  13  14  15  26  29  33  34 0
 6-311+G(2d,p)
 ****
 36  38  39  40  41 0
 6-311+G(2d,p)
 ****
 1  2  3  4  5  16  17  18  19  20  21  22  23  24  25 0
 3-21G
 ****
 27  28  30  31  32  35  37  42  43  44  45  46  47 0
 3-21G
 ****
 48  49 0
 3-21G
 ****


