%nproc=1
%NoSave
%Mem=1900MB
#P OB98/GEN NMR

erre ene a

0 1
  C      295.567     125.959    -132.102
  O      296.741     126.475    -132.736
  P      297.820     127.166    -131.764
  C      299.749     126.801    -133.460
  O      299.014     127.736    -132.678
  C      300.976     127.452    -134.109
  O      300.599     128.225    -135.283
  C      301.733     128.409    -133.173
  O      303.127     128.294    -133.504
  C      301.229     129.774    -133.604
  O      302.101     130.817    -133.176
  C      301.146     129.557    -135.111
  N      300.729     134.463    -136.243
  C      301.636     133.813    -135.436
  N      302.612     134.569    -134.888
  N      301.602     132.529    -135.185
  C      300.592     131.886    -135.837
  C      299.636     132.414    -136.681
  C      299.681     133.849    -136.917
  O      298.904     134.470    -137.628
  N      298.808     131.438    -137.173
  C      299.222     130.336    -136.567
  N      300.337     130.536    -135.799
  O      298.478     125.917    -131.004
  O      297.234     128.148    -130.810
  H      301.670     131.665    -133.414
  H      298.094     125.822    -130.117
  H      300.797     135.455    -136.387
  H      298.770     129.361    -136.678
  H      302.137     129.586    -135.592
  H      300.230     129.961    -133.182
  H      302.725     135.554    -135.071
  H      301.580     128.216    -132.105
  H      303.313     134.107    -134.319
  H      301.650     126.655    -134.448
  H      299.110     126.390    -134.246
  H      300.036     125.954    -132.830
  P      304.168     128.140    -132.303
  C      305.578     126.490    -133.725
  O      305.564     127.670    -132.942
  O      303.648     126.825    -131.542
  O      304.236     129.308    -131.373
  H      303.745     126.944    -130.576
  H      306.403     126.556    -134.432
  H      304.647     126.360    -134.278
  H      305.736     125.624    -133.071
  H      294.925     125.525    -132.840
  H      295.052     126.754    -131.604
  H      295.846     125.212    -131.389

 3  4  5  6  7  8  9  10  11  12  23  26  30  31 0
 6-311+G(2d,p)
 ****
 33  35  36  37  38 0
 6-311+G(2d,p)
 ****
 1  2  13  14  15  16  17  18  19  20  21  22  24  25 0
 3-21G
 ****
 27  28  29  32  34  39  40  41  42  43  44  45  46  47  48  49 0
 3-21G
 ****


