%nproc=1
%NoSave
%Mem=1900MB
#P OB98/GEN NMR

erre ene a

0 1
  C     -178.984    -569.334    -341.031
  O     -178.236    -569.320    -342.234
  H     -179.779    -568.583    -341.103
  H     -178.338    -569.082    -340.181
  H     -179.438    -570.318    -340.880
  P     -176.977    -570.317    -342.297
  C     -175.241    -568.656    -341.315
  O     -175.980    -569.857    -341.124
  C     -174.703    -568.581    -342.744
  O     -174.037    -567.315    -342.970
  C     -173.704    -569.675    -343.099
  O     -174.369    -570.866    -343.490
  C     -172.947    -569.026    -344.249
  O     -173.695    -569.121    -345.482
  C     -172.854    -567.561    -343.784
  N     -167.841    -566.951    -344.058
  C     -168.748    -567.367    -345.018
  N     -168.238    -567.692    -346.230
  N     -170.034    -567.464    -344.813
  C     -170.399    -567.159    -343.546
  C     -169.601    -566.740    -342.503
  C     -168.184    -566.583    -342.758
  O     -167.349    -566.138    -341.972
  N     -170.345    -566.512    -341.366
  C     -171.577    -566.821    -341.715
  N     -171.667    -567.225    -343.029
  O     -176.214    -569.861    -343.633
  O     -177.309    -571.770    -342.333
  H     -173.145    -568.798    -346.215
  H     -175.860    -570.659    -344.076
  H     -166.869    -566.864    -344.278
  H     -172.445    -566.766    -341.070
  H     -172.895    -566.866    -344.631
  H     -171.988    -569.514    -344.428
  H     -167.265    -567.916    -346.352
  H     -173.011    -569.860    -342.266
  H     -168.889    -568.070    -346.905
  H     -175.565    -568.614    -343.420
  H     -174.405    -568.645    -340.610
  H     -175.892    -567.797    -341.119
  P     -173.884    -572.252    -342.841
  C     -171.596    -572.263    -344.083
  O     -172.273    -572.254    -342.835
  O     -174.252    -573.317    -343.977
  O     -174.533    -572.592    -341.545
  H     -175.037    -573.831    -343.705
  H     -170.539    -572.263    -343.915
  H     -171.868    -571.393    -344.643
  H     -171.870    -573.140    -344.631

 6  7  8  9  10  11  12  13  14  15  26  29  33  34 0
 6-311+G(2d,p)
 ****
 36  38  39  40  41 0
 6-311+G(2d,p)
 ****
 1  2  3  4  5  16  17  18  19  20  21  22  23  24  25 0
 3-21G
 ****
 27  28  30  31  32  35  37  42  43  44  45  46  47 0
 3-21G
 ****
 48  49 0
 3-21G
 ****


