%nproc=1
%NoSave
%Mem=1900MB
#P OB98/GEN NMR

erre ene a

0 1
  C      315.700    -814.633    -154.215
  O      314.758    -815.540    -153.678
  H      315.806    -814.836    -155.284
  H      316.664    -814.765    -153.730
  H      315.352    -813.603    -154.086
  P      314.373    -815.357    -152.132
  C      311.816    -815.576    -152.533
  O      312.981    -816.124    -151.909
  C      310.631    -816.518    -152.381
  O      310.849    -817.697    -153.217
  C      310.391    -817.007    -150.944
  O      308.974    -817.139    -150.750
  C      310.998    -818.404    -150.952
  O      310.482    -819.236    -149.916
  C      310.626    -818.844    -152.369
  N      310.424    -823.813    -153.175
  C      309.442    -822.930    -152.782
  N      308.207    -823.438    -152.569
  N      309.644    -821.647    -152.618
  C      310.922    -821.258    -152.892
  C      311.986    -822.033    -153.278
  C      311.750    -823.462    -153.440
  O      312.582    -824.293    -153.767
  N      313.119    -821.274    -153.433
  C      312.734    -820.056    -153.138
  N      311.407    -819.985    -152.801
  O      313.976    -813.810    -152.051
  O      315.450    -815.709    -151.152
  H      309.518    -819.359    -150.081
  H      314.748    -813.274    -151.785
  H      310.212    -824.792    -153.280
  H      313.370    -819.171    -153.156
  H      309.571    -819.134    -152.453
  H      312.085    -818.337    -150.833
  H      307.966    -824.406    -152.722
  H      310.810    -816.359    -150.170
  H      307.463    -822.796    -152.326
  H      309.735    -816.020    -152.778
  H      312.028    -815.427    -153.602
  H      311.593    -814.607    -152.079
  P      308.115    -815.801    -150.524
  C      305.701    -816.534    -151.160
  O      306.620    -816.233    -150.122
  O      307.932    -815.244    -152.021
  O      308.754    -814.790    -149.634
  H      307.833    -814.273    -151.998
  H      304.757    -816.802    -150.734
  H      306.075    -817.351    -151.741
  H      305.578    -815.676    -151.788

 6  7  8  9  10  11  12  13  14  15  26  29  33  34 0
 6-311+G(2d,p)
 ****
 36  38  39  40  41 0
 6-311+G(2d,p)
 ****
 1  2  3  4  5  16  17  18  19  20  21  22  23  24  25 0
 3-21G
 ****
 27  28  30  31  32  35  37  42  43  44  45  46  47 0
 3-21G
 ****
 48  49 0
 3-21G
 ****


