%nproc=1
%NoSave
%Mem=1900MB
#P OB98/GEN NMR

erre ene a

0 1
  C       47.050      60.209     136.967
  O       47.714      60.544     138.174
  P       47.480      61.961     138.898
  C       45.352      63.329     139.439
  O       45.938      62.320     138.635
  C       44.164      63.964     138.714
  O       44.664      64.715     137.575
  C       43.131      62.958     138.187
  O       41.843      63.574     138.299
  C       43.525      62.800     136.731
  O       42.458      62.320     135.925
  C       43.986      64.225     136.400
  N       44.857      64.274     135.232
  C       44.255      64.329     133.974
  O       43.030      64.311     133.858
  N       45.059      64.403     132.863
  C       46.348      64.340     132.991
  N       47.102      64.477     131.867
  C       47.022      64.174     134.292
  C       46.225      64.170     135.358
  O       48.443      63.029     138.508
  O       47.481      61.613     140.455
  H       41.762      63.004     135.898
  H       48.390      61.590     140.845
  H       48.100      64.096     134.346
  H       46.632      64.076     136.356
  H       43.119      64.877     136.243
  H       44.354      62.088     136.652
  H       43.133      62.018     138.748
  H       43.687      64.681     139.393
  H       46.614      64.763     131.023
  H       46.104      64.101     139.629
  H       48.075      64.762     131.921
  H       45.043      62.903     140.401
  P       40.547      62.624     138.362
  C       39.789      60.639     139.850
  O       40.862      61.427     139.378
  O       40.622      61.882     136.939
  O       39.227      63.309     138.508
  H       39.724      61.599     136.683
  H       40.188      59.873     140.521
  H       39.283      60.142     139.017
  H       39.076      61.254     140.406
  H       47.345      59.228     136.658
  H       47.312      60.916     136.208
  H       45.992      60.230     137.124

 3  4  5  6  7  8  9  10  11  12  13  23  27  28  29  30  32 0
 6-311+G(2d,p)
 ****
 34  35 0
 6-311+G(2d,p)
 ****
 1  2  14  15  16  17  18  19  20  21  22  24  25  26 0
 3-21G
 ****
 31  33  36  37  38  39  40  41  42  43  44  45  46 0
 3-21G
 ****


