%nproc=1
%NoSave
%Mem=1900MB
#P OB98/GEN NMR

erre ene a

0 1
  C      332.813    -250.112     187.772
  O      333.685    -251.113     188.267
  H      333.135    -249.142     188.162
  H      331.785    -250.291     188.102
  H      332.850    -250.081     186.680
  P      333.328    -252.646     187.960
  C      331.273    -254.159     188.395
  O      331.858    -252.870     188.556
  C      330.837    -254.711     189.748
  O      329.989    -253.765     190.426
  C      330.028    -255.993     189.639
  O      330.862    -257.099     189.357
  C      329.349    -256.019     190.995
  O      330.231    -256.508     192.013
  C      329.036    -254.517     191.210
  N      327.668    -254.168     190.846
  C      326.668    -254.620     191.715
  O      326.960    -255.267     192.721
  N      325.360    -254.347     191.405
  C      325.075    -253.664     190.341
  N      323.758    -253.428     190.087
  C      326.099    -253.160     189.405
  C      327.357    -253.449     189.717
  O      334.333    -253.671     188.387
  O      333.082    -252.666     186.379
  H      330.259    -257.478     191.893
  H      333.917    -252.846     185.907
  H      325.814    -252.591     188.532
  H      328.177    -253.110     189.084
  H      329.195    -254.237     192.259
  H      328.464    -256.654     190.990
  H      329.255    -255.888     188.873
  H      331.734    -254.863     190.364
  H      323.088    -253.804     190.751
  H      332.038    -254.806     187.948
  H      323.424    -252.837     189.345
  H      330.418    -254.112     187.713
  P      330.275    -258.399     188.624
  C      328.591    -260.246     189.258
  O      329.245    -259.048     189.671
  O      331.294    -259.334     188.064
  O      329.306    -257.780     187.506
  H      329.821    -257.390     186.757
  H      327.935    -260.580     190.034
  H      329.322    -261.001     189.060
  H      328.025    -260.056     188.370

 6  7  8  9  10  11  12  13  14  15  16  26  30  31  32  33  35 0
 6-311+G(2d,p)
 ****
 37  38 0
 6-311+G(2d,p)
 ****
 1  2  3  4  5  17  18  19  20  21  22  23  24  25 0
 3-21G
 ****
 27  28  29  34  36  39  40  41  42  43  44  45  46 0
 3-21G
 ****


