%nproc=1
%NoSave
%Mem=1900MB
#P OB98/GEN NMR

erre ene a

0 1
  C      306.079    -356.318    -166.301
  O      305.164    -356.862    -165.370
  H      306.101    -355.234    -166.175
  H      305.748    -356.549    -167.316
  H      307.084    -356.715    -166.134
  P      305.214    -358.453    -165.149
  C      302.843    -358.636    -166.193
  O      303.690    -358.952    -165.098
  C      301.407    -359.048    -165.894
  O      301.318    -360.483    -165.730
  C      300.830    -358.441    -164.619
  O      300.329    -357.128    -164.850
  C      299.700    -359.414    -164.325
  O      298.589    -359.143    -165.205
  C      300.341    -360.762    -164.691
  N      299.837    -362.489    -159.948
  C      298.943    -361.788    -160.733
  N      297.745    -361.498    -160.177
  N      299.198    -361.398    -161.955
  C      300.442    -361.738    -162.378
  C      301.418    -362.424    -161.689
  C      301.113    -362.859    -160.348
  O      301.868    -363.495    -159.609
  N      302.551    -362.580    -162.444
  C      302.271    -361.967    -163.576
  N      301.005    -361.436    -163.586
  O      305.710    -358.582    -163.631
  O      306.110    -359.193    -166.080
  H      298.110    -358.379    -164.833
  H      306.657    -358.817    -163.628
  H      299.593    -362.756    -159.010
  H      302.942    -361.886    -164.419
  H      299.616    -361.467    -165.103
  H      299.323    -359.330    -163.305
  H      297.495    -361.747    -159.235
  H      301.555    -358.456    -163.796
  H      297.075    -360.991    -160.738
  H      300.791    -358.781    -166.762
  H      303.200    -359.171    -167.081
  H      302.890    -357.556    -166.379
  P      300.293    -356.102    -163.616
  C      297.732    -355.712    -163.509
  O      299.001    -355.167    -163.828
  O      301.517    -355.126    -163.940
  O      300.427    -356.721    -162.268
  H      302.232    -355.259    -163.284
  H      296.973    -354.982    -163.698
  H      297.712    -355.988    -162.475
  H      297.554    -356.577    -164.112

 6  7  8  9  10  11  12  13  14  15  26  29  33  34 0
 6-311+G(2d,p)
 ****
 36  38  39  40  41 0
 6-311+G(2d,p)
 ****
 1  2  3  4  5  16  17  18  19  20  21  22  23  24  25 0
 3-21G
 ****
 27  28  30  31  32  35  37  42  43  44  45  46  47 0
 3-21G
 ****
 48  49 0
 3-21G
 ****


