%nproc=1
%NoSave
%Mem=1900MB
#P OB98/GEN NMR

erre ene a

0 1
  C      478.262    -314.124    -493.281
  O      479.095    -315.234    -493.529
  H      477.891    -313.742    -494.237
  H      478.821    -313.333    -492.774
  H      477.408    -314.427    -492.665
  P      479.830    -315.880    -492.253
  C      479.317    -318.406    -492.660
  O      478.982    -317.216    -491.962
  C      478.056    -319.217    -492.942
  O      477.083    -318.425    -493.654
  C      478.281    -320.458    -493.815
  O      478.850    -321.549    -493.107
  C      476.847    -320.741    -494.233
  O      476.126    -321.325    -493.129
  C      476.344    -319.313    -494.537
  N      476.536    -318.927    -495.937
  C      475.646    -319.481    -496.872
  O      474.758    -320.255    -496.509
  N      475.803    -319.167    -498.206
  C      476.750    -318.357    -498.564
  N      476.858    -318.091    -499.901
  C      477.700    -317.745    -497.622
  C      477.532    -318.062    -496.338
  O      479.395    -314.917    -491.048
  O      481.305    -316.086    -492.384
  H      475.903    -320.596    -492.517
  H      479.678    -315.310    -490.182
  H      478.477    -317.081    -497.974
  H      478.197    -317.647    -495.577
  H      475.281    -319.212    -494.284
  H      476.776    -321.440    -495.061
  H      478.870    -320.214    -494.701
  H      477.608    -319.494    -491.972
  H      476.228    -318.575    -500.529
  H      480.009    -318.980    -492.035
  H      477.647    -317.598    -500.301
  H      479.813    -318.165    -493.612
  P      480.449    -321.694    -493.151
  C      480.798    -321.498    -490.569
  O      481.023    -320.924    -491.857
  O      480.870    -320.740    -494.356
  O      480.950    -323.092    -493.338
  H      481.655    -321.090    -494.829
  H      481.236    -320.874    -489.819
  H      481.243    -322.470    -490.529
  H      479.746    -321.580    -490.394

 6  7  8  9  10  11  12  13  14  15  16  26  30  31  32  33  35 0
 6-311+G(2d,p)
 ****
 37  38 0
 6-311+G(2d,p)
 ****
 1  2  3  4  5  17  18  19  20  21  22  23  24  25 0
 3-21G
 ****
 27  28  29  34  36  39  40  41  42  43  44  45  46 0
 3-21G
 ****


