%nproc=1
%NoSave
%Mem=1900MB
#P OB98/GEN NMR

erre ene a

0 1
  C      -90.893    -249.073    -226.232
  O      -90.846    -249.821    -225.035
  P      -90.358    -249.161    -223.659
  C      -88.093    -248.605    -222.592
  O      -88.807    -248.786    -223.810
  C      -86.729    -247.959    -222.836
  O      -86.914    -246.671    -223.480
  C      -85.902    -247.735    -221.562
  O      -84.536    -247.998    -221.889
  C      -86.109    -246.258    -221.277
  O      -85.077    -245.717    -220.465
  C      -86.182    -245.701    -222.704
  N      -86.817    -244.391    -222.756
  C      -86.022    -243.293    -222.422
  O      -84.882    -243.461    -221.979
  N      -86.546    -242.032    -222.589
  C      -87.803    -241.893    -222.873
  N      -88.264    -240.630    -223.093
  C      -88.731    -243.039    -222.986
  C      -88.170    -244.246    -222.959
  O      -90.691    -249.937    -222.429
  O      -91.074    -247.724    -223.641
  H      -91.559    -247.623    -222.799
  H      -84.221    -245.825    -220.927
  H      -89.792    -242.870    -223.096
  H      -88.763    -245.147    -223.061
  H      -85.177    -245.624    -223.139
  H      -87.067    -246.113    -220.759
  H      -86.211    -248.387    -220.738
  H      -86.171    -248.596    -223.539
  H      -87.590    -239.876    -223.048
  H      -87.946    -249.585    -222.138
  H      -89.118    -240.454    -223.619
  H      -88.688    -247.996    -221.900
  P      -83.597    -248.664    -220.767
  C      -82.258    -247.791    -218.719
  O      -83.284    -247.549    -219.660
  O      -82.191    -248.770    -221.546
  O      -84.004    -250.015    -220.273
  H      -81.661    -249.490    -221.146
  H      -82.232    -246.965    -218.007
  H      -81.287    -247.857    -219.223
  H      -82.453    -248.720    -218.172
  H      -91.244    -249.696    -227.028
  H      -89.913    -248.713    -226.466
  H      -91.557    -248.244    -226.108

 3  4  5  6  7  8  9  10  11  12  13  24  27  28  29  30  32 0
 6-311+G(2d,p)
 ****
 34  35 0
 6-311+G(2d,p)
 ****
 1  2  14  15  16  17  18  19  20  21  22  23  25  26 0
 3-21G
 ****
 31  33  36  37  38  39  40  41  42  43  44  45  46 0
 3-21G
 ****


