%nproc=1
%NoSave
%Mem=1900MB
#P OB98/GEN NMR

erre ene a

0 1
  C     -210.591     295.232     288.315
  O     -211.311     294.160     287.755
  P     -210.796     292.651     287.736
  C     -210.933     292.460     285.133
  O     -211.329     291.947     286.394
  C     -211.801     291.882     284.004
  O     -211.471     292.564     282.767
  C     -211.512     290.385     283.786
  O     -212.674     289.599     283.554
  C     -210.453     290.401     282.694
  O     -210.334     289.173     281.992
  C     -210.884     291.605     281.853
  N     -209.037     292.726     277.256
  C     -210.289     292.256     277.598
  N     -211.082     291.874     276.573
  N     -210.711     292.148     278.834
  C     -209.767     292.463     279.755
  C     -208.498     292.939     279.534
  C     -208.057     293.087     278.161
  O     -206.915     293.394     277.815
  N     -207.797     293.091     280.706
  C     -208.636     292.669     281.634
  N     -209.832     292.252     281.100
  O     -210.896     291.891     289.016
  O     -209.223     292.848     287.407
  H     -209.585     289.254     281.382
  H     -208.739     292.141     287.882
  H     -208.740     292.707     276.285
  H     -208.414     292.626     282.698
  H     -211.655     291.331     281.127
  H     -209.484     290.590     283.169
  H     -210.734     291.802     275.626
  H     -211.080     289.940     284.693
  H     -211.892     291.299     276.801
  H     -212.855     292.077     284.221
  H     -209.889     292.171     284.993
  H     -210.979     293.561     285.131
  P     -213.165     288.294     284.328
  C     -211.497     286.641     283.297
  O     -212.857     287.011     283.422
  O     -214.765     288.370     284.300
  O     -212.684     288.183     285.743
  H     -215.128     288.068     285.154
  H     -211.396     285.948     282.459
  H     -211.172     286.139     284.211
  H     -210.871     287.519     283.111
  H     -211.151     296.136     288.200
  H     -209.650     295.329     287.815
  H     -210.425     295.045     289.355

 3  4  5  6  7  8  9  10  11  12  23  26  30  31 0
 6-311+G(2d,p)
 ****
 33  35  36  37  38 0
 6-311+G(2d,p)
 ****
 1  2  13  14  15  16  17  18  19  20  21  22  24  25 0
 3-21G
 ****
 27  28  29  32  34  39  40  41  42  43  44  45  46  47  48  49 0
 3-21G
 ****


