%nproc=1
%NoSave
%Mem=1900MB
#P OB98/GEN NMR

erre ene a

0 1
  C      446.969      36.820     529.036
  O      447.463      37.878     528.241
  H      445.918      37.013     529.264
  H      447.527      36.767     529.974
  H      447.045      35.867     528.503
  P      448.917      37.692     527.590
  C      450.312      38.978     529.368
  O      449.967      37.720     528.806
  C      451.635      38.867     530.124
  O      451.435      38.011     531.285
  C      452.776      38.255     529.298
  O      453.997      38.902     529.667
  C      452.812      36.815     529.778
  O      454.063      36.172     529.578
  C      452.451      36.994     531.255
  N      451.976      35.757     531.872
  C      452.884      34.707     531.977
  O      454.070      34.770     531.667
  N      452.370      33.534     532.471
  C      451.073      33.307     532.829
  O      450.671      32.228     533.243
  C      450.160      34.454     532.689
  C      450.650      35.606     532.220
  O      449.161      39.092     526.855
  O      449.066      36.528     526.669
  H      448.828      39.059     525.939
  H      453.977      35.254     529.910
  H      453.011      32.762     532.551
  H      449.124      34.309     532.953
  H      449.999      36.466     532.084
  H      453.315      37.374     531.814
  H      452.044      36.230     529.258
  H      452.631      38.325     528.215
  H      451.912      39.860     530.499
  H      449.530      39.293     530.066
  H      450.392      39.722     528.568
  P      454.801      39.677     528.514
  C      456.517      37.739     528.103
  O      455.453      38.529     527.600
  O      456.031      40.274     529.341
  O      453.966      40.687     527.800
  H      456.332      39.684     530.053
  H      456.819      37.032     527.359
  H      456.191      37.217     528.978
  H      457.344      38.371     528.352

 6  7  8  9  10  11  12  13  14  15  16  27  31  32  33  34  35 0
 6-311+G(2d,p)
 ****
 36  37 0
 6-311+G(2d,p)
 ****
 1  2  3  4  5  17  18  19  20  21  22  23  24  25 0
 3-21G
 ****
 26  28  29  30  38  39  40  41  42  43  44  45 0
 3-21G
 ****


