%nproc=1
%NoSave
%Mem=1900MB
#P OB98/GEN NMR

erre ene a

0 1
  C      374.720    1007.169     413.959
  O      374.927    1005.946     413.275
  H      373.741    1007.141     414.442
  H      374.744    1008.008     413.258
  H      375.488    1007.306     414.729
  P      376.300    1005.745     412.478
  C      375.681    1007.063     410.348
  O      375.920    1005.784     410.920
  C      375.839    1006.994     408.832
  O      377.227    1006.885     408.472
  C      375.125    1005.796     408.195
  O      373.744    1006.070     408.032
  C      375.874    1005.702     406.870
  O      375.406    1006.734     405.977
  C      377.319    1005.996     407.308
  N      380.626    1002.498     405.738
  C      380.017    1003.517     405.034
  N      380.290    1003.580     403.716
  N      379.192    1004.375     405.568
  C      378.955    1004.144     406.888
  C      379.495    1003.153     407.686
  C      380.454    1002.250     407.094
  O      381.036    1001.337     407.684
  N      378.969    1003.199     408.949
  C      378.151    1004.224     408.936
  N      378.088    1004.826     407.695
  O      377.127    1004.549     412.868
  O      377.087    1007.116     412.700
  H      375.867    1006.596     405.125
  H      377.676    1007.068     413.472
  H      381.241    1001.857     405.260
  H      377.574    1004.579     409.787
  H      377.891    1006.525     406.541
  H      375.742    1004.747     406.367
  H      380.678    1002.792     403.211
  H      375.303    1004.871     408.756
  H      379.809    1004.286     403.171
  H      375.459    1007.932     408.411
  H      376.414    1007.757     410.771
  H      374.671    1007.410     410.603
  P      372.629    1005.165     408.764
  C      372.738    1003.398     406.879
  O      371.931    1004.332     407.580
  O      371.686    1005.915     409.641
  O      373.472    1004.041     409.530
  H      373.748    1004.305     410.441
  H      372.152    1002.917     406.123
  H      373.110    1002.664     407.563
  H      373.560    1003.909     406.422

 6  7  8  9  10  11  12  13  14  15  26  29  33  34 0
 6-311+G(2d,p)
 ****
 36  38  39  40  41 0
 6-311+G(2d,p)
 ****
 1  2  3  4  5  16  17  18  19  20  21  22  23  24  25 0
 3-21G
 ****
 27  28  30  31  32  35  37  42  43  44  45  46  47 0
 3-21G
 ****
 48  49 0
 3-21G
 ****


