%nproc=1
%NoSave
%Mem=1900MB
#P OB98/GEN NMR

erre ene a

0 1
  C        3.354     -10.417      31.729
  O        4.682      -9.990      32.058
  P        4.807      -8.923      33.255
  C        5.276      -6.581      32.233
  O        4.300      -7.499      32.707
  C        4.645      -5.268      31.765
  O        3.857      -4.707      32.844
  C        5.646      -4.191      31.335
  O        5.096      -3.471      30.222
  C        5.674      -3.243      32.519
  O        6.115      -1.938      32.156
  C        4.217      -3.322      32.969
  N        2.813       0.577      35.865
  C        2.774       0.439      34.492
  N        2.316       1.500      33.793
  N        3.148      -0.642      33.861
  C        3.552      -1.634      34.691
  C        3.627      -1.623      36.066
  C        3.249      -0.404      36.746
  O        3.311      -0.201      37.957
  N        4.088      -2.821      36.553
  C        4.300      -3.550      35.477
  N        3.997      -2.872      34.323
  O        6.389      -8.737      33.412
  O        4.182      -9.374      34.532
  H        5.991      -1.366      32.936
  H        6.658      -8.936      34.330
  H        2.532       1.439      36.298
  H        4.690      -4.558      35.471
  H        3.564      -2.741      32.306
  H        6.355      -3.635      33.283
  H        1.951       2.337      34.218
  H        6.640      -4.572      31.077
  H        2.237       1.401      32.788
  H        3.954      -5.494      30.945
  H        5.823      -7.032      31.400
  H        5.994      -6.389      33.038
  P        5.886      -3.594      28.831
  C        7.227      -1.389      29.153
  O        7.260      -2.798      29.037
  O        5.047      -2.653      27.845
  O        6.007      -4.990      28.318
  H        5.147      -2.955      26.923
  H        6.211      -1.009      29.284
  H        7.656      -0.948      28.250
  H        7.828      -1.091      30.015
  H        3.395     -11.121      30.924
  H        2.770      -9.571      31.433
  H        2.905     -10.878      32.584

 3  4  5  6  7  8  9  10  11  12  23  26  30  31  33  0
 6-311+G(2d,p)
 ****
 35  36  37  38 0
 6-311+G(2d,p)
 ****
 1  2  13  14  15  16  17  18  19  20  21  22  24  25  27  28  29 0
 3-21G
 ****
 32  34  39  40  41  42  43  44  45  46  47  48  49 0
 3-21G
 ****


