%nproc=1
%NoSave
%Mem=1900MB
#P OB98/GEN NMR

erre ene a

0 1
  C       51.880    -317.367      27.596
  O       52.638    -317.619      26.428
  H       51.888    -316.293      27.794
  H       52.334    -317.885      28.445
  H       50.845    -317.694      27.467
  P       52.489    -319.075      25.769
  C       50.803    -318.179      24.012
  O       51.051    -319.107      25.056
  C       49.996    -318.836      22.899
  O       49.553    -317.846      21.945
  C       50.759    -319.887      22.102
  O       50.750    -321.150      22.755
  C       49.937    -319.929      20.825
  O       48.731    -320.687      21.051
  C       49.596    -318.446      20.620
  N       50.680    -316.793      15.946
  C       49.630    -317.577      16.387
  N       48.748    -317.987      15.450
  N       49.463    -317.935      17.634
  C       50.431    -317.473      18.460
  C       51.524    -316.692      18.142
  C       51.686    -316.291      16.762
  O       52.594    -315.586      16.321
  N       52.288    -316.423      19.244
  C       51.675    -317.058      20.221
  N       50.546    -317.711      19.801
  O       52.302    -320.023      27.048
  O       53.642    -319.513      24.931
  H       48.997    -321.553      21.410
  H       53.147    -320.479      27.227
  H       50.768    -316.552      14.975
  H       52.006    -317.067      21.255
  H       48.610    -318.308      20.161
  H       50.463    -320.412      20.001
  H       48.832    -317.765      14.468
  H       51.780    -319.558      21.871
  H       47.972    -318.560      15.750
  H       49.095    -319.275      23.351
  H       51.761    -317.829      23.609
  H       50.250    -317.323      24.419
  P       51.851    -322.235      22.327
  C       53.428    -322.008      24.376
  O       53.243    -321.777      22.984
  O       52.052    -321.930      20.769
  O       51.467    -323.660      22.558
  H       51.697    -322.671      20.235
  H       54.394    -321.654      24.671
  H       53.356    -323.057      24.576
  H       52.674    -321.487      24.927

 6  7  8  9  10  11  12  13  14  15  26  29  33  34 0
 6-311+G(2d,p)
 ****
 36  38  39  40  41 0
 6-311+G(2d,p)
 ****
 1  2  3  4  5  16  17  18  19  20  21  22  23  24  25 0
 3-21G
 ****
 27  28  30  31  32  35  37  42  43  44  45  46  47 0
 3-21G
 ****
 48  49 0
 3-21G
 ****


