%nproc=1
%NoSave
%Mem=1900MB
#P OB98/GEN NMR

erre ene a

0 1
  C      -52.143    -279.186     169.419
  O      -50.891    -278.561     169.722
  P      -50.028    -277.809     168.594
  C      -49.564    -279.802     167.040
  O      -50.205    -278.534     167.171
  C      -49.064    -280.084     165.617
  O      -48.458    -281.404     165.528
  C      -50.146    -280.022     164.525
  O      -49.487    -279.569     163.342
  C      -50.543    -281.484     164.392
  O      -51.216    -281.778     163.175
  C      -49.183    -282.160     164.537
  N      -50.111    -286.927     162.906
  C      -49.884    -285.774     162.234
  N      -49.608    -284.555     162.738
  C      -49.532    -284.595     164.077
  C      -49.730    -285.696     164.897
  C      -50.042    -286.910     164.257
  N      -50.321    -288.075     164.935
  N      -49.600    -285.346     166.227
  C      -49.338    -284.050     166.207
  N      -49.287    -283.552     164.933
  O      -48.601    -277.565     168.977
  O      -50.783    -276.410     168.388
  H      -50.630    -281.533     162.436
  H      -50.123    -275.690     168.373
  H      -49.940    -285.842     161.149
  H      -49.206    -283.426     167.084
  H      -48.615    -282.116     163.602
  H      -51.221    -281.750     165.216
  H      -50.985    -279.372     164.781
  H      -48.266    -279.362     165.397
  H      -50.275    -280.584     167.337
  H      -50.625    -288.869     164.394
  H      -50.399    -288.048     165.944
  H      -48.719    -279.840     167.739
  P      -49.874    -278.186     162.635
  C      -51.335    -279.133     160.761
  O      -51.315    -278.400     161.970
  O      -48.836    -277.636     161.715
  O      -50.174    -277.183     163.851
  H      -50.123    -276.261     163.536
  H      -50.985    -278.499     159.939
  H      -52.361    -279.455     160.554
  H      -50.697    -280.024     160.829
  H      -52.547    -279.625     170.307
  H      -51.993    -279.947     168.682
  H      -52.825    -278.453     169.041

 3  4  5  6  7  8  9  10  11  12  22  25  29  30  31  32 0
 6-311+G(2d,p)
 ****
 33  36  37 0
 6-311+G(2d,p)
 ****
 1  2  13  14  15  16  17  18  19  20  21  23  24  26 0
 3-21G
 ****
 27  28  34  35  38  39  40  41  42  43  44  45  46  47  48 0
 3-21G
 ****


