%nproc=1
%NoSave
%Mem=1900MB
#P OB98/GEN NMR

erre ene a

0 1
  C      -84.921    -252.776    -362.113
  O      -85.207    -254.081    -361.598
  P      -86.284    -254.340    -360.436
  C      -87.709    -255.929    -361.888
  O      -87.687    -254.744    -361.096
  C      -88.419    -257.079    -361.166
  O      -89.705    -256.657    -360.672
  C      -88.700    -258.299    -362.035
  O      -87.526    -259.059    -362.244
  C      -89.775    -259.004    -361.209
  O      -89.192    -259.786    -360.155
  C      -90.566    -257.810    -360.633
  N      -91.814    -257.570    -361.347
  C      -92.877    -258.435    -361.053
  O      -92.718    -259.378    -360.280
  N      -94.087    -258.221    -361.674
  C      -94.201    -257.280    -362.561
  N      -95.425    -257.112    -363.137
  C      -93.085    -256.406    -362.962
  C      -91.934    -256.605    -362.321
  O      -86.376    -253.238    -359.434
  O      -85.807    -255.699    -359.725
  H      -89.906    -259.976    -359.517
  H      -86.061    -255.674    -358.783
  H      -93.213    -255.653    -363.726
  H      -91.061    -256.000    -362.545
  H      -90.796    -257.980    -359.573
  H      -90.392    -259.680    -361.812
  H      -89.128    -257.985    -362.995
  H      -87.805    -257.360    -360.298
  H      -96.174    -257.722    -362.832
  H      -86.676    -256.218    -362.104
  H      -95.622    -256.407    -363.835
  H      -88.214    -255.707    -362.838
  P      -86.818    -259.054    -363.683
  C      -84.661    -257.777    -363.129
  O      -85.921    -257.730    -363.777
  O      -87.726    -259.289    -364.847
  O      -85.721    -260.217    -363.570
  H      -85.601    -260.621    -364.452
  H      -84.005    -257.030    -363.582
  H      -84.201    -258.764    -363.233
  H      -84.791    -257.541    -362.072
  H      -84.175    -252.849    -362.876
  H      -84.562    -252.151    -361.322
  H      -85.813    -252.352    -362.526

 3  4  5  6  7  8  9  10  11  12  13  23  27  28  29  30  32 0
 6-311+G(2d,p)
 ****
 34  35 0
 6-311+G(2d,p)
 ****
 1  2  14  15  16  17  18  19  20  21  22  24  25  26 0
 3-21G
 ****
 31  33  36  37  38  39  40  41  42  43  44  45  46 0
 3-21G
 ****


