%nproc=1
%NoSave
%Mem=1900MB
#P OB98/GEN NMR

erre ene a

0 1
  C     -224.957     -91.320     793.677
  O     -225.643     -90.121     794.071
  P     -227.103     -89.737     793.538
  C     -228.337     -90.584     795.636
  O     -228.187     -90.694     794.223
  C     -229.436     -91.515     796.162
  O     -229.037     -92.891     796.049
  C     -229.800     -91.311     797.625
  O     -230.589     -90.154     797.812
  C     -230.507     -92.628     797.937
  O     -231.880     -92.585     797.512
  C     -229.705     -93.633     797.088
  N     -228.756     -94.405     797.888
  C     -229.307     -95.315     798.797
  O     -230.526     -95.397     798.941
  N     -228.453     -96.093     799.542
  C     -227.170     -95.924     799.439
  N     -226.378     -96.727     800.200
  C     -226.554     -94.913     798.562
  C     -227.400     -94.198     797.820
  O     -227.206     -89.674     792.043
  O     -227.417     -88.303     794.173
  H     -231.907     -92.032     796.709
  H     -227.990     -87.798     793.566
  H     -225.484     -94.785     798.525
  H     -227.033     -93.442     797.137
  H     -230.381     -94.327     796.581
  H     -230.511     -92.863     799.008
  H     -228.879     -91.246     798.229
  H     -230.327     -91.368     795.528
  H     -226.828     -97.411     800.786
  H     -228.596     -89.546     795.872
  H     -225.370     -96.677     800.191
  H     -227.378     -90.827     796.114
  P     -229.888     -88.771     798.222
  C     -230.665     -87.810     795.973
  O     -229.594     -87.953     796.883
  O     -228.738     -88.890     799.167
  O     -231.085     -87.929     798.888
  H     -230.716     -87.349     799.578
  H     -230.479     -86.941     795.338
  H     -231.616     -87.671     796.500
  H     -230.732     -88.705     795.348
  H     -224.003     -91.360     794.159
  H     -224.821     -91.321     792.616
  H     -225.537     -92.173     793.963

 3  4  5  6  7  8  9  10  11  12  13  23  27  28  29  30  32 0
 6-311+G(2d,p)
 ****
 34  35 0
 6-311+G(2d,p)
 ****
 1  2  14  15  16  17  18  19  20  21  22  24  25  26 0
 3-21G
 ****
 31  33  36  37  38  39  40  41  42  43  44  45  46 0
 3-21G
 ****


