%nproc=1
%NoSave
%Mem=1900MB
#P OB98/GEN NMR

erre ene a

0 1
  C     -385.721     403.209    -169.343
  O     -386.556     402.599    -170.307
  H     -385.509     402.487    -168.551
  H     -386.242     404.066    -168.904
  H     -384.778     403.535    -169.787
  P     -386.675     403.318    -171.735
  C     -385.364     402.591    -173.856
  O     -385.294     403.036    -172.509
  C     -384.041     402.858    -174.575
  O     -383.804     404.298    -174.589
  C     -382.822     402.189    -173.918
  O     -381.917     401.761    -174.946
  C     -382.177     403.339    -173.166
  O     -380.788     403.117    -172.920
  C     -382.456     404.497    -174.117
  N     -378.990     407.668    -172.346
  C     -378.857     406.543    -173.139
  N     -377.602     406.164    -173.464
  N     -379.874     405.841    -173.574
  C     -381.073     406.342    -173.192
  C     -381.337     407.441    -172.410
  C     -380.204     408.197    -171.917
  O     -380.255     409.188    -171.198
  N     -382.689     407.580    -172.197
  C     -383.237     406.557    -172.836
  N     -382.293     405.779    -173.453
  O     -386.585     404.872    -171.355
  O     -387.913     403.004    -172.507
  H     -380.709     402.467    -172.197
  H     -387.484     405.241    -171.261
  H     -378.174     408.160    -172.023
  H     -384.291     406.329    -172.864
  H     -381.785     404.500    -174.985
  H     -382.677     403.491    -172.201
  H     -376.774     406.667    -173.192
  H     -383.074     401.343    -173.267
  H     -377.491     405.365    -174.075
  H     -384.142     402.541    -175.618
  H     -386.166     403.128    -174.374
  H     -385.595     401.521    -173.867
  P     -382.446     400.701    -176.025
  C     -384.231     400.641    -177.920
  O     -383.535     401.418    -176.956
  O     -383.329     399.699    -175.139
  O     -381.360     399.982    -176.747
  H     -383.257     398.794    -175.494
  H     -384.916     401.266    -178.454
  H     -384.771     399.860    -177.426
  H     -383.530     400.212    -178.606

 6  7  8  9  10  11  12  13  14  15  26  29  33  34 0
 6-311+G(2d,p)
 ****
 36  38  39  40  41 0
 6-311+G(2d,p)
 ****
 1  2  3  4  5  16  17  18  19  20  21  22  23  24  25 0
 3-21G
 ****
 27  28  30  31  32  35  37  42  43  44  45  46  47 0
 3-21G
 ****
 48  49 0
 3-21G
 ****


