%nproc=1
%NoSave
%Mem=1900MB
#P OB98/GEN NMR

erre ene a

0 1
  C      -34.763      25.390    -105.515
  O      -34.685      24.142    -106.174
  H      -34.397      26.181    -106.173
  H      -35.810      25.591    -105.269
  H      -34.181      25.374    -104.589
  P      -33.214      23.572    -106.468
  C      -33.897      21.124    -105.922
  O      -33.419      22.037    -106.899
  C      -34.266      19.790    -106.575
  O      -35.436      19.988    -107.412
  C      -33.155      19.213    -107.458
  O      -33.126      17.794    -107.297
  C      -33.603      19.565    -108.866
  O      -33.059      18.684    -109.841
  C      -35.121      19.491    -108.728
  N      -36.634      19.563    -113.603
  C      -36.076      18.596    -112.845
  N      -35.707      18.656    -111.548
  C      -36.015      19.857    -111.025
  C      -36.582      20.940    -111.672
  C      -36.890      20.765    -113.031
  N      -37.425      21.757    -113.821
  N      -36.710      22.010    -110.805
  C      -36.227      21.576    -109.659
  N      -35.792      20.283    -109.743
  O      -32.587      23.468    -104.995
  O      -32.369      24.395    -107.379
  H      -32.086      18.666    -109.731
  H      -32.286      24.351    -104.708
  H      -35.896      17.649    -113.348
  H      -36.162      22.155    -108.747
  H      -35.500      18.465    -108.812
  H      -33.282      20.585    -109.111
  H      -32.171      19.626    -107.224
  H      -34.556      19.084    -105.789
  H      -34.781      21.551    -105.438
  H      -37.562      21.562    -114.800
  H      -37.566      22.677    -113.429
  H      -33.119      20.963    -105.168
  P      -31.710      17.137    -106.925
  C      -32.727      15.260    -105.456
  O      -31.938      15.584    -106.591
  O      -31.361      17.785    -105.504
  O      -30.639      17.419    -107.930
  H      -30.453      18.140    -105.513
  H      -32.792      14.196    -105.359
  H      -33.709      15.668    -105.576
  H      -32.275      15.672    -104.578

 6  7  8  9  10  11  12  13  14  15  25  28  32  33  34  35 0
 6-311+G(2d,p)
 ****
 36  39  40 0
 6-311+G(2d,p)
 ****
 1  2  3  4  5  16  17  18  19  20  21  22  23  24 0
 3-21G
 ****
 26  27  29  30  31  37  38  41  42  43  44  45  46  47 0
 3-21G
 ****
 48 0
 3-21G
 ****


