%nproc=1
%NoSave
%Mem=1900MB
#P OB98/GEN NMR

erre ene a

0 1
  C      138.999     231.103    -197.638
  O      140.290     231.560    -197.274
  P      141.495     230.504    -197.243
  C      141.166     229.977    -194.717
  O      141.210     229.474    -196.044
  C      142.527     229.805    -194.038
  O      142.528     230.526    -192.768
  C      142.899     228.344    -193.734
  O      144.321     228.220    -193.871
  C      142.512     228.208    -192.273
  O      143.146     227.112    -191.629
  C      142.932     229.585    -191.751
  N      142.342     229.909    -190.452
  C      143.181     229.871    -189.342
  O      144.379     229.585    -189.393
  N      142.583     230.116    -188.135
  C      141.247     230.300    -187.922
  O      140.759     230.399    -186.801
  C      140.410     230.329    -189.131
  C      140.984     230.135    -190.321
  O      142.729     231.374    -196.713
  O      141.789     229.856    -198.555
  H      142.842     226.296    -192.071
  H      143.301     231.642    -197.460
  H      143.179     230.104    -187.320
  H      139.347     230.495    -189.000
  H      140.387     230.131    -191.229
  H      144.025     229.644    -191.679
  H      141.428     228.065    -192.194
  H      142.387     227.619    -194.379
  H      143.297     230.268    -194.675
  H      140.413     229.427    -194.149
  H      140.872     231.031    -194.731
  P      144.897     226.873    -194.534
  C      145.417     225.885    -192.167
  O      144.783     225.727    -193.421
  O      146.464     227.211    -194.579
  O      144.313     226.566    -195.876
  H      146.780     227.630    -193.760
  H      145.420     226.931    -191.847
  H      146.449     225.527    -192.238
  H      144.885     225.288    -191.423
  H      138.310     231.921    -197.611
  H      138.681     230.347    -196.951
  H      139.030     230.696    -198.627

 3  4  5  6  7  8  9  10  11  12  13  23  28  29  30  31  32 0
 6-311+G(2d,p)
 ****
 33  34 0
 6-311+G(2d,p)
 ****
 1  2  14  15  16  17  18  19  20  21  22  24  25  26 0
 3-21G
 ****
 27  35  36  37  38  39  40  41  42  43  44  45 0
 3-21G
 ****


