%nproc=1
%NoSave
%Mem=1900MB
#P OB98/GEN NMR

erre ene a

0 1
  C      -48.940      59.236     143.915
  O      -48.539      60.562     143.554
  P      -48.590      61.676     144.711
  C      -51.086      62.142     144.189
  O      -50.116      61.841     145.183
  C      -52.351      62.755     144.806
  O      -53.145      61.736     145.481
  C      -52.064      63.850     145.838
  O      -53.117      64.817     145.753
  C      -52.184      63.115     147.159
  O      -52.396      64.015     148.244
  C      -53.343      62.172     146.843
  N      -55.383      60.384     151.170
  C      -55.529      61.557     150.520
  N      -54.931      61.967     149.376
  C      -54.140      60.996     148.888
  C      -53.885      59.750     149.443
  C      -54.549      59.453     150.645
  N      -54.381      58.266     151.322
  N      -52.978      59.048     148.668
  C      -52.689      59.861     147.670
  N      -53.389      61.035     147.743
  O      -48.293      63.037     143.919
  O      -47.601      61.455     145.807
  H      -52.559      63.485     149.054
  H      -47.396      63.357     144.136
  H      -56.214      62.267     150.977
  H      -51.983      59.654     146.882
  H      -54.319      62.674     146.903
  H      -51.263      62.550     147.357
  H      -51.096      64.345     145.720
  H      -52.966      63.166     143.995
  H      -51.359      61.232     143.646
  H      -54.873      58.140     152.192
  H      -53.727      57.585     150.967
  H      -50.642      62.814     143.446
  P      -52.682      66.322     145.404
  C      -53.456      67.682     147.473
  O      -52.388      67.039     146.805
  O      -54.045      67.003     144.903
  O      -51.597      66.422     144.379
  H      -53.847      67.749     144.307
  H      -53.375      67.481     148.545
  H      -54.433      67.333     147.125
  H      -53.384      68.760     147.308
  H      -48.861      58.595     143.062
  H      -49.954      59.251     144.257
  H      -48.305      58.871     144.695

 3  4  5  6  7  8  9  10  11  12  22  25  29  30  31  32 0
 6-311+G(2d,p)
 ****
 33  36  37 0
 6-311+G(2d,p)
 ****
 1  2  13  14  15  16  17  18  19  20  21  23  24  26 0
 3-21G
 ****
 27  28  34  35  38  39  40  41  42  43  44  45  46  47  48 0
 3-21G
 ****


