%nproc=1
%NoSave
%Mem=1900MB
#P OB98/GEN NMR

erre ene a

0 1
  C     -163.597      32.246     329.767
  O     -164.026      33.424     330.417
  H     -162.514      32.162     329.879
  H     -163.836      32.288     328.702
  H     -164.064      31.369     330.221
  P     -165.577      33.821     330.350
  C     -165.176      36.014     329.049
  O     -165.770      34.720     329.035
  C     -165.338      36.684     327.680
  O     -164.716      37.993     327.754
  C     -164.662      35.892     326.553
  O     -165.536      35.624     325.459
  C     -163.395      36.692     326.277
  O     -162.887      36.548     324.965
  C     -163.794      38.120     326.655
  N     -162.665      38.970     327.028
  C     -162.091      39.747     326.026
  O     -162.465      39.782     324.857
  N     -161.028      40.522     326.416
  C     -160.491      40.585     327.668
  O     -159.541      41.301     327.955
  C     -161.124      39.721     328.675
  C     -162.165      38.964     328.316
  O     -166.146      34.410     331.597
  O     -166.311      32.453     329.959
  H     -162.177      37.215     324.856
  H     -166.761      32.089     330.746
  H     -160.614      41.101     325.702
  H     -160.715      39.735     329.678
  H     -162.655      38.317     329.036
  H     -164.314      38.607     325.829
  H     -162.612      36.347     326.963
  H     -164.380      34.890     326.897
  H     -166.405      36.839     327.485
  H     -164.115      35.894     329.290
  H     -165.650      36.628     329.821
  P     -165.867      34.176     324.881
  C     -163.866      33.883     323.199
  O     -164.501      33.491     324.410
  O     -167.020      34.096     323.939
  O     -166.258      33.321     326.194
  H     -166.920      32.663     325.906
  H     -162.972      33.311     323.064
  H     -163.620      34.923     323.246
  H     -164.528      33.710     322.377

 6  7  8  9  10  11  12  13  14  15  16  26  31  32  33  34  35 0
 6-311+G(2d,p)
 ****
 36  37 0
 6-311+G(2d,p)
 ****
 1  2  3  4  5  17  18  19  20  21  22  23  24  25 0
 3-21G
 ****
 27  28  29  30  38  39  40  41  42  43  44  45 0
 3-21G
 ****


