%nproc=1
%NoSave
%Mem=1900MB
#P OB98/GEN NMR

erre ene a

0 1
  C      417.056    -258.417    -420.795
  O      417.960    -259.230    -420.027
  P      417.322    -260.223    -418.942
  C      416.327    -259.896    -416.563
  O      417.285    -259.464    -417.520
  C      416.402    -259.060    -415.272
  O      417.764    -259.052    -414.751
  C      416.001    -257.598    -415.460
  O      415.433    -257.111    -414.230
  C      417.330    -256.903    -415.697
  O      417.243    -255.494    -415.463
  C      418.204    -257.681    -414.701
  N      422.829    -257.243    -412.703
  C      421.594    -257.277    -412.089
  N      421.592    -257.227    -410.734
  N      420.457    -257.364    -412.742
  C      420.621    -257.441    -414.087
  C      421.787    -257.404    -414.810
  C      423.027    -257.287    -414.077
  O      424.153    -257.230    -414.579
  N      421.540    -257.485    -416.165
  C      420.217    -257.563    -416.255
  N      419.622    -257.587    -415.011
  O      418.472    -261.333    -418.745
  O      416.041    -260.852    -419.369
  H      416.689    -255.370    -414.653
  H      418.195    -262.167    -419.153
  H      423.669    -257.163    -412.155
  H      419.657    -257.613    -417.168
  H      418.083    -257.319    -413.674
  H      417.668    -257.065    -416.721
  H      422.431    -257.216    -410.174
  H      415.285    -257.423    -416.286
  H      420.697    -257.293    -410.265
  H      415.768    -259.524    -414.515
  H      416.481    -260.955    -416.320
  H      415.325    -259.840    -417.009
  P      413.837    -257.173    -414.090
  C      411.850    -256.152    -415.422
  O      413.259    -256.344    -415.328
  O      413.536    -256.227    -412.834
  O      413.280    -258.550    -413.907
  H      412.698    -256.480    -412.410
  H      411.604    -255.137    -415.117
  H      411.305    -256.861    -414.790
  H      411.541    -256.297    -416.452
  H      417.614    -257.808    -421.475
  H      416.492    -257.791    -420.136
  H      416.390    -259.047    -421.346

 3  4  5  6  7  8  9  10  11  12  23  26  30  31 0
 6-311+G(2d,p)
 ****
 33  35  36  37  38 0
 6-311+G(2d,p)
 ****
 1  2  13  14  15  16  17  18  19  20  21  22  24  25 0
 3-21G
 ****
 27  28  29  32  34  39  40  41  42  43  44  45  46  47  48  49 0
 3-21G
 ****


