%nproc=1
%NoSave
%Mem=1900MB
#P OB98/GEN NMR

erre ene a

0 1
  C      967.781     508.195    -128.833
  O      967.022     508.382    -130.002
  P      967.335     509.568    -131.023
  C      966.527     511.998    -131.339
  O      966.580     510.876    -130.461
  C      965.676     513.132    -130.695
  O      964.281     512.693    -130.663
  C      966.111     513.449    -129.240
  O      966.366     514.844    -129.033
  C      964.996     512.862    -128.420
  O      964.873     513.403    -127.122
  C      963.785     513.028    -129.352
  N      962.639     512.204    -128.963
  C      961.803     512.711    -127.955
  O      961.947     513.809    -127.420
  N      960.784     511.884    -127.562
  C      960.587     510.592    -127.973
  O      959.716     509.885    -127.512
  C      961.529     510.094    -128.982
  C      962.489     510.927    -129.454
  O      967.056     509.281    -132.460
  O      968.878     509.911    -130.704
  H      964.176     512.906    -126.644
  H      969.054     510.182    -129.794
  H      960.156     512.236    -126.846
  H      961.417     509.073    -129.319
  H      963.211     510.573    -130.200
  H      963.454     514.076    -129.399
  H      965.195     511.777    -128.287
  H      967.061     512.958    -129.001
  H      965.763     514.011    -131.350
  H      966.079     511.706    -132.286
  H      967.541     512.356    -131.555
  P      967.237     515.428    -127.816
  C      966.544     517.030    -125.846
  O      966.246     515.896    -126.639
  O      968.262     516.442    -128.187
  O      967.934     514.137    -127.180
  H      968.783     514.359    -126.765
  H      966.081     516.909    -124.849
  H      966.108     517.910    -126.346
  H      967.624     517.165    -125.760
  H      967.405     507.350    -128.295
  H      967.711     509.068    -128.219
  H      968.804     508.025    -129.096

 3  4  5  6  7  8  9  10  11  12  13  23  28  29  30  31  32 0
 6-311+G(2d,p)
 ****
 33  34 0
 6-311+G(2d,p)
 ****
 1  2  14  15  16  17  18  19  20  21  22  24  25  26  27 0
 3-21G
 ****
 35  36  37  38  39  40  41  42  43  44  45 0
 3-21G
 ****


