%nproc=1
%NoSave
%Mem=1900MB
#P OB98/GEN NMR

erre ene a

0 1
  C     -234.897      35.933     362.661
  O     -235.407      36.681     363.748
  H     -235.700      35.779     361.936
  H     -234.542      34.957     363.005
  H     -234.086      36.480     362.177
  P     -234.389      36.988     364.950
  C     -234.106      38.979     366.580
  O     -234.795      38.456     365.453
  C     -234.419      40.463     366.758
  O     -233.776      41.235     365.729
  C     -235.903      40.805     366.686
  O     -236.526      40.583     367.942
  C     -235.842      42.287     366.351
  O     -235.603      43.045     367.552
  C     -234.618      42.376     365.423
  N     -235.105      45.251     361.198
  C     -234.978      45.586     362.499
  N     -234.908      44.772     363.575
  C     -234.973      43.483     363.201
  C     -235.109      42.991     361.911
  C     -235.170      43.938     360.875
  N     -235.304      43.593     359.548
  N     -235.148      41.613     361.912
  C     -234.977      41.279     363.176
  N     -234.904      42.373     364.000
  O     -232.945      36.773     364.644
  O     -234.987      36.051     366.103
  H     -236.399      42.950     368.109
  H     -235.960      36.082     366.098
  H     -234.925      46.652     362.706
  H     -234.882      40.262     363.543
  H     -234.027      43.280     365.618
  H     -236.773      42.659     365.919
  H     -236.404      40.270     365.870
  H     -233.993      40.783     367.718
  H     -233.025      38.840     366.460
  H     -235.532      44.329     358.901
  H     -235.481      42.624     359.328
  H     -234.431      38.413     367.459
  P     -238.118      40.429     368.061
  C     -239.679      39.583     369.921
  O     -238.352      39.586     369.406
  O     -238.781      39.899     366.838
  O     -238.626      41.891     368.461
  H     -239.587      41.964     368.299
  H     -239.714      38.993     370.813
  H     -240.343      39.168     369.192
  H     -239.977      40.586     370.145

 6  7  8  9  10  11  12  13  14  15  25  28  32  33  34  35 0
 6-311+G(2d,p)
 ****
 36  39  40 0
 6-311+G(2d,p)
 ****
 1  2  3  4  5  16  17  18  19  20  21  22  23  24 0
 3-21G
 ****
 26  27  29  30  31  37  38  41  42  43  44  45  46  47 0
 3-21G
 ****
 48 0
 3-21G
 ****


