%nproc=1
%NoSave
%Mem=1900MB
#P OB98/GEN NMR

erre ene a

0 1
  C      -33.053     324.160     -39.777
  O      -32.888     322.956     -40.505
  P      -33.614     322.858     -41.941
  C      -36.051     323.219     -42.771
  O      -35.189     322.972     -41.672
  C      -37.289     323.993     -42.315
  O      -36.915     325.328     -41.920
  C      -38.357     324.164     -43.381
  O      -39.093     322.970     -43.573
  C      -39.164     325.316     -42.777
  O      -40.036     324.822     -41.753
  C      -38.054     326.192     -42.161
  N      -38.317     331.245     -42.944
  C      -38.861     330.450     -42.007
  N      -38.771     329.109     -41.875
  C      -38.004     328.594     -42.848
  C      -37.393     329.274     -43.891
  C      -37.573     330.665     -43.924
  N      -37.011     331.476     -44.891
  N      -36.715     328.399     -44.713
  C      -36.896     327.219     -44.171
  N      -37.659     327.278     -43.035
  O      -33.417     321.326     -42.336
  O      -33.070     323.787     -42.980
  H      -40.359     325.592     -41.244
  H      -33.308     321.224     -43.302
  H      -39.460     330.961     -41.246
  H      -36.490     326.292     -44.555
  H      -38.356     326.627     -41.206
  H      -39.779     325.836     -43.521
  H      -37.907     324.476     -44.329
  H      -37.706     323.477     -41.435
  H      -36.374     322.261     -43.206
  H      -37.306     332.439     -44.926
  H      -36.580     331.025     -45.692
  H      -35.502     323.775     -43.539
  P      -39.961     322.846     -44.914
  C      -41.337     324.687     -46.071
  O      -40.970     324.089     -44.836
  O      -40.906     321.600     -44.579
  O      -39.158     322.729     -46.169
  H      -41.328     321.691     -43.701
  H      -42.063     325.475     -45.875
  H      -41.787     323.937     -46.729
  H      -40.454     325.118     -46.549
  H      -32.523     324.092     -38.850
  H      -34.093     324.320     -39.583
  H      -32.667     324.978     -40.349

 3  4  5  6  7  8  9  10  11  12  22  25  29  30  31  32 0
 6-311+G(2d,p)
 ****
 33  36  37 0
 6-311+G(2d,p)
 ****
 1  2  13  14  15  16  17  18  19  20  21  23  24  26 0
 3-21G
 ****
 27  28  34  35  38  39  40  41  42  43  44  45  46  47  48 0
 3-21G
 ****


