%nproc=1
%NoSave
%Mem=1900MB
#P OB98/GEN NMR

erre ene a

0 1
  C     1150.861    -898.560    -549.768
  O     1150.076    -898.020    -550.815
  P     1148.573    -898.590    -550.985
  C     1149.046    -898.830    -553.569
  O     1148.187    -898.370    -552.524
  C     1148.641    -898.200    -554.893
  O     1147.221    -898.450    -555.167
  C     1148.778    -896.680    -554.947
  O     1150.143    -896.280    -555.115
  C     1147.862    -896.330    -556.117
  O     1148.539    -896.560    -557.375
  C     1146.717    -897.320    -555.933
  N     1145.540    -896.750    -555.292
  C     1144.500    -896.350    -556.137
  O     1144.578    -896.470    -557.374
  N     1143.419    -895.780    -555.525
  C     1143.290    -895.530    -554.197
  O     1142.302    -894.970    -553.716
  C     1144.431    -895.930    -553.354
  C     1145.485    -896.530    -553.908
  O     1147.742    -897.480    -550.197
  O     1148.415    -900.000    -550.469
  H     1148.189    -896.610    -550.197
  H     1147.930    -896.230    -558.092
  H     1142.661    -895.520    -556.124
  H     1144.350    -895.740    -552.289
  H     1146.323    -896.830    -553.305
  H     1146.417    -897.750    -556.898
  H     1147.553    -895.270    -556.106
  H     1148.394    -896.230    -554.027
  H     1149.215    -898.660    -555.699
  H     1148.951    -899.910    -553.646
  H     1150.089    -898.570    -553.327
  P     1150.646    -895.000    -554.304
  C     1152.220    -893.860    -556.039
  O     1152.090    -894.640    -554.880
  O     1150.946    -895.630    -552.855
  O     1149.647    -893.870    -554.302
  H     1151.377    -896.480    -552.910
  H     1153.247    -893.440    -556.071
  H     1151.517    -893.050    -556.073
  H     1152.097    -894.500    -556.927
  H     1151.826    -898.097    -549.770
  H     1150.971    -899.614    -549.912
  H     1150.379    -898.377    -548.830

 3  4  5  6  7  8  9  10  11  12  13  24  28  29  30  31  32 0
 6-311+G(2d,p)
 ****
 33  34 0
 6-311+G(2d,p)
 ****
 1  2  14  15  16  17  18  19  20  21  22  23  25  26  27 0
 3-21G
 ****
 35  36  37  38  39  40  41  42  43  44  45 0
 3-21G
 ****


