%nproc=1
%NoSave
%Mem=1900MB
#P OB98/GEN NMR

erre ene a

0 1
  C       75.551      83.653     395.305
  O       76.083      82.723     396.227
  H       76.137      83.633     394.384
  H       74.522      83.367     395.071
  H       75.549      84.662     395.726
  P       77.467      83.107     396.940
  C       78.709      81.553     395.272
  O       78.485      81.901     396.631
  C       80.051      80.840     395.120
  O       81.113      81.770     395.474
  C       80.208      79.592     396.002
  O       80.912      78.595     395.256
  C       81.093      80.076     397.136
  O       81.829      79.024     397.748
  C       81.966      81.099     396.417
  N       85.426      81.553     400.113
  C       85.237      80.612     399.165
  N       84.320      80.596     398.179
  C       83.589      81.724     398.190
  C       83.669      82.773     399.088
  C       84.633      82.651     400.104
  N       84.787      83.571     401.116
  N       82.710      83.726     398.802
  C       82.048      83.246     397.767
  N       82.543      82.037     397.363
  O       77.119      82.915     398.492
  O       77.984      84.474     396.648
  H       82.457      78.657     397.095
  H       76.745      83.742     398.848
  H       85.906      79.755     399.209
  H       81.194      83.711     397.296
  H       82.793      80.635     395.866
  H       80.474      80.556     397.904
  H       79.256      79.181     396.361
  H       80.190      80.583     394.062
  H       78.722      82.466     394.668
  H       85.429      83.346     401.859
  H       84.132      84.336     401.184
  H       77.895      80.911     394.923
  P       80.042      77.451     394.546
  C       81.282      75.655     395.965
  O       80.823      76.059     394.681
  O       80.176      77.801     392.990
  O       78.613      77.419     394.983
  H       79.360      77.557     392.518
  H       81.780      74.711     395.885
  H       80.448      75.564     396.629
  H       81.964      76.386     396.347

 6  7  8  9  10  11  12  13  14  15  25  28  32  33  34  35 0
 6-311+G(2d,p)
 ****
 36  39  40 0
 6-311+G(2d,p)
 ****
 1  2  3  4  5  16  17  18  19  20  21  22  23  24 0
 3-21G
 ****
 26  27  29  30  31  37  38  41  42  43  44  45  46  47 0
 3-21G
 ****
 48 0
 3-21G
 ****


