%nproc=1
%NoSave
%Mem=1900MB
#P OB98/GEN NMR

erre ene a

0 1
  C      -32.488     -44.235    -581.851
  O      -33.269     -44.940    -580.910
  H      -32.640     -44.684    -582.842
  H      -31.428     -44.310    -581.598
  H      -32.787     -43.182    -581.893
  P      -33.352     -44.390    -579.412
  C      -35.824     -45.008    -578.964
  O      -34.456     -45.269    -578.644
  C      -36.736     -45.834    -578.060
  O      -36.644     -47.240    -578.418
  C      -36.353     -45.773    -576.576
  O      -36.759     -44.546    -576.004
  C      -37.082     -46.998    -576.050
  O      -38.467     -46.720    -575.808
  C      -36.924     -47.995    -577.217
  N      -35.878     -48.978    -576.963
  C      -36.235     -50.102    -576.223
  O      -37.387     -50.292    -575.813
  N      -35.225     -50.985    -575.922
  C      -33.896     -50.771    -576.168
  O      -33.014     -51.457    -575.655
  C      -33.568     -49.602    -576.987
  C      -34.552     -48.764    -577.338
  O      -33.526     -42.903    -579.277
  O      -31.981     -44.875    -578.745
  H      -31.357     -44.126    -578.711
  H      -38.869     -46.569    -576.685
  H      -35.489     -51.777    -575.352
  H      -32.537     -49.442    -577.257
  H      -34.337     -47.873    -577.927
  H      -37.863     -48.535    -577.397
  H      -36.645     -47.348    -575.118
  H      -35.278     -45.914    -576.464
  H      -37.773     -45.505    -578.219
  H      -35.998     -45.286    -580.009
  H      -36.024     -43.938    -578.845
  P      -36.275     -44.159    -574.517
  C      -35.110     -41.875    -574.749
  O      -36.303     -42.557    -574.374
  O      -35.000     -44.806    -574.077
  O      -37.495     -44.623    -573.591
  H      -37.146     -45.162    -572.839
  H      -35.243     -40.822    -574.613
  H      -34.891     -42.077    -575.777
  H      -34.299     -42.213    -574.139

 6  7  8  9  10  11  12  13  14  15  16  27  31  32  33  34  35 0
 6-311+G(2d,p)
 ****
 36  37 0
 6-311+G(2d,p)
 ****
 1  2  3  4  5  17  18  19  20  21  22  23  24  25 0
 3-21G
 ****
 26  28  29  30  38  39  40  41  42  43  44  45 0
 3-21G
 ****


