%nproc=1
%NoSave
%Mem=1900MB
#P OB98/GEN NMR

erre ene a

0 1
  C     -247.888     379.171    -181.021
  O     -246.633     379.443    -180.400
  P     -245.948     378.225    -179.614
  C     -243.811     378.187    -181.094
  O     -244.960     377.477    -180.638
  C     -243.276     377.563    -182.391
  O     -244.193     377.702    -183.488
  C     -241.972     378.189    -182.857
  O     -240.879     377.654    -182.112
  C     -241.942     377.776    -184.332
  O     -241.414     376.449    -184.493
  C     -243.438     377.804    -184.721
  N     -243.396     380.206    -189.190
  C     -242.729     379.055    -188.789
  N     -241.970     378.445    -189.727
  N     -242.815     378.560    -187.589
  C     -243.608     379.266    -186.757
  C     -244.335     380.400    -187.042
  C     -244.235     380.948    -188.388
  O     -244.813     381.953    -188.787
  N     -245.080     380.812    -185.961
  C     -244.695     379.999    -184.994
  N     -243.864     379.005    -185.437
  O     -247.154     377.185    -179.412
  O     -245.337     378.627    -178.312
  H     -241.928     375.836    -183.937
  H     -247.404     377.155    -178.473
  H     -243.287     380.546    -190.115
  H     -245.021     380.070    -183.964
  H     -243.717     376.966    -185.347
  H     -241.310     378.438    -184.923
  H     -241.868     378.772    -190.672
  H     -242.013     379.273    -182.775
  H     -241.485     377.591    -189.449
  H     -243.124     376.486    -182.203
  H     -243.027     378.168    -180.334
  H     -244.082     379.228    -181.255
  P     -240.072     378.654    -181.161
  C     -241.180     377.708    -179.014
  O     -240.926     378.840    -179.830
  O     -240.207     380.066    -181.919
  O     -238.631     378.293    -180.954
  H     -239.344     380.522    -181.912
  H     -241.286     378.046    -177.972
  H     -240.379     376.978    -179.078
  H     -242.120     377.244    -179.332
  H     -248.243     380.054    -181.510
  H     -248.595     378.867    -180.278
  H     -247.768     378.388    -181.741

 3  4  5  6  7  8  9  10  11  12  23  26  30  31 0
 6-311+G(2d,p)
 ****
 33  35  36  37  38 0
 6-311+G(2d,p)
 ****
 1  2  13  14  15  16  17  18  19  20  21  22  24  25 0
 3-21G
 ****
 27  28  29  32  34  39  40  41  42  43  44  45  46  47  48  49 0
 3-21G
 ****


