%nproc=1
%NoSave
%Mem=1900MB
#P OB98/GEN NMR

erre ene a

0 1
  C      -29.641       7.046      -3.417
  O      -30.717       6.645      -2.558
  P      -30.976       5.108      -2.177
  C      -31.948       2.995      -3.282
  O      -31.775       4.406      -3.378
  C      -32.755       2.443      -4.462
  O      -34.146       2.801      -4.343
  C      -32.305       2.949      -5.828
  O      -31.146       2.261      -6.259
  C      -33.555       2.694      -6.666
  O      -33.613       1.317      -7.075
  C      -34.675       3.004      -5.666
  N      -38.941       5.790      -6.100
  C      -38.740       4.463      -5.948
  N      -37.572       3.795      -5.845
  C      -36.535       4.649      -5.886
  C      -36.584       6.025      -6.042
  C      -37.859       6.602      -6.154
  N      -38.060       7.952      -6.324
  N      -35.313       6.560      -6.065
  C      -34.511       5.525      -5.908
  N      -35.201       4.350      -5.796
  O      -31.594       4.906      -0.832
  O      -29.530       4.423      -2.243
  H      -33.671       0.776      -6.267
  H      -29.498       3.663      -1.633
  H      -39.641       3.855      -5.905
  H      -33.431       5.577      -5.866
  H      -35.518       2.311      -5.776
  H      -33.588       3.306      -7.573
  H      -32.112       4.026      -5.784
  H      -32.697       1.348      -4.423
  H      -32.472       2.775      -2.345
  H      -39.005       8.285      -6.430
  H      -37.258       8.559      -6.412
  H      -30.960       2.524      -3.254
  P      -29.710       2.665      -5.678
  C      -28.027       4.569      -6.022
  O      -29.237       3.981      -6.461
  O      -28.705       1.564      -5.620
  O      -30.039       3.228      -4.214
  H      -29.277       3.064      -3.628
  H      -28.217       5.169      -5.128
  H      -27.646       5.221      -6.813
  H      -27.277       3.806      -5.800
  H      -29.656       8.109      -3.534
  H      -29.755       6.580      -4.373
  H      -28.709       6.748      -2.984

 3  4  5  6  7  8  9  10  11  12  22  25  29  30  31  32 0
 6-311+G(2d,p)
 ****
 33  36  37 0
 6-311+G(2d,p)
 ****
 1  2  13  14  15  16  17  18  19  20  21  23  24  26 0
 3-21G
 ****
 27  28  34  35  38  39  40  41  42  43  44  45  46  47  48 0
 3-21G
 ****


