%nproc=1
%NoSave
%Mem=1900MB
#P OB98/GEN NMR

erre ene a

0 1
  C     -896.230    -895.080    -677.512
  O     -895.060    -894.580    -676.903
  P     -895.310    -893.320    -675.921
  C     -894.610    -894.580    -673.780
  O     -895.630    -893.860    -674.435
  C     -895.110    -895.290    -672.517
  O     -895.470    -894.340    -671.511
  C     -896.310    -896.210    -672.813
  O     -896.250    -897.350    -671.925
  C     -897.520    -895.340    -672.352
  O     -898.630    -896.140    -672.120
  C     -896.870    -894.620    -671.146
  N     -897.590    -893.450    -670.808
  C     -898.330    -893.440    -669.589
  O     -898.410    -894.470    -668.943
  N     -898.950    -892.300    -669.166
  C     -898.890    -891.220    -669.915
  N     -899.560    -890.110    -669.477
  C     -898.210    -891.180    -671.236
  C     -897.550    -892.280    -671.581
  O     -896.690    -892.690    -676.415
  O     -894.170    -892.310    -676.006
  H     -898.400    -896.740    -671.297
  H     -896.590    -891.750    -676.525
  H     -898.200    -890.280    -671.833
  H     -896.990    -892.380    -672.529
  H     -896.870    -895.300    -670.236
  H     -897.730    -894.590    -673.184
  H     -896.410    -896.570    -673.839
  H     -894.300    -895.920    -672.100
  H     -900.000    -890.190    -668.578
  H     -893.780    -893.900    -673.480
  H     -899.590    -889.220    -670.007
  H     -894.190    -895.310    -674.487
  P     -895.730    -898.750    -672.576
  C     -893.330    -898.670    -671.566
  O     -894.140    -898.510    -672.688
  O     -896.240    -898.600    -674.054
  O     -896.150    -900.000    -671.914
  H     -895.990    -899.420    -674.536
  H     -892.270    -898.620    -671.828
  H     -893.530    -899.630    -671.094
  H     -893.520    -897.870    -670.808
  H     -895.978    -895.908    -678.142
  H     -896.683    -894.309    -678.100
  H     -896.916    -895.402    -676.756

 3  4  5  6  7  8  9  10  11  12  13  21  23  27  28  29  30  32 0
 6-311+G(2d,p)
 ****
 34  35 0
 6-311+G(2d,p)
 ****
 1  2  14  15  16  17  18  19  20  22  24  25  26 0
 3-21G
 ****
 31  33  36  37  38  39  40  41  42  43  44  45  46 0
 3-21G
 ****


