%nproc=1
%NoSave
%Mem=1900MB
#P OB98/GEN NMR

erre ene a

0 1
  C       29.440      54.354      13.842
  O       30.530      53.471      14.028
  H       28.788      54.293      14.715
  H       28.871      54.066      12.955
  H       29.802      55.380      13.740
  P       31.626      53.430      12.857
  C       33.751      52.926      14.247
  O       32.739      52.408      13.393
  C       34.889      51.921      14.397
  O       34.481      50.811      15.215
  C       35.367      51.313      13.084
  O       36.253      52.194      12.412
  C       36.083      50.071      13.590
  O       37.393      50.427      14.074
  C       35.194      49.628      14.766
  N       34.497      44.947      12.779
  C       35.569      45.767      12.788
  N       35.670      47.013      13.297
  C       34.506      47.402      13.842
  C       33.328      46.674      13.907
  C       33.352      45.384      13.351
  N       32.257      44.546      13.352
  N       32.339      47.398      14.539
  C       32.926      48.522      14.896
  N       34.227      48.588      14.466
  O       32.115      54.754      12.382
  O       30.861      52.553      11.756
  H       37.275      51.088      14.782
  H       30.356      51.837      12.179
  H       36.468      45.369      12.327
  H       32.462      49.309      15.479
  H       35.790      49.263      15.610
  H       36.226      49.325      12.806
  H       34.526      51.010      12.453
  H       35.713      52.423      14.918
  H       33.334      53.166      15.230
  H       32.309      43.714      12.786
  H       31.374      44.920      13.666
  H       34.120      53.851      13.793
  P       35.921      52.717      10.934
  C       36.305      55.143      11.692
  O       36.673      54.125      10.768
  O       34.474      52.743      10.585
  O       36.748      51.749       9.970
  H       36.234      51.551       9.164
  H       36.866      56.031      11.487
  H       36.512      54.812      12.688
  H       35.260      55.352      11.595

 6  7  8  9  10  11  12  13  14  15  25  28  32  33  34  35 0
 6-311+G(2d,p)
 ****
 36  39  40 0
 6-311+G(2d,p)
 ****
 1  2  3  4  5  16  17  18  19  20  21  22  23  24 0
 3-21G
 ****
 26  27  29  30  31  37  38  41  42  43  44  45  46  47 0
 3-21G
 ****
 48 0
 3-21G
 ****


