%nproc=1
%NoSave
%Mem=1900MB
#P OB98/GEN NMR

erre ene a

0 1
  C      -16.172      13.560     162.032
  O      -16.663      13.765     160.717
  P      -18.169      14.256     160.475
  C      -18.815      11.806     160.043
  O      -19.114      12.992     160.769
  C      -20.091      11.176     159.489
  O      -20.914      10.740     160.597
  C      -20.924      12.135     158.648
  O      -21.528      11.405     157.576
  C      -22.025      12.600     159.586
  O      -23.195      13.004     158.857
  C      -22.207      11.364     160.472
  N      -26.235      12.939     163.238
  C      -26.099      12.677     161.920
  N      -24.993      12.287     161.248
  C      -23.964      12.119     162.094
  C      -23.953      12.343     163.462
  C      -25.158      12.777     164.040
  N      -25.297      13.032     165.387
  N      -22.700      12.091     163.989
  C      -21.979      11.703     162.961
  N      -22.699      11.692     161.795
  O      -18.413      14.921     159.165
  O      -18.477      15.231     161.703
  H      -23.921      13.101     159.508
  H      -19.018      15.988     161.408
  H      -26.997      12.800     161.322
  H      -20.935      11.431     163.002
  H      -22.892      10.639     160.017
  H      -21.674      13.462     160.165
  H      -20.339      12.970     158.248
  H      -19.820      10.285     158.911
  H      -18.331      11.099     160.724
  H      -26.227      13.221     165.728
  H      -24.551      12.747     166.006
  H      -18.115      12.041     159.233
  P      -21.336      12.029     156.104
  C      -23.706      13.058     156.415
  O      -22.361      13.259     156.047
  O      -21.454      10.993     155.036
  O      -19.886      12.695     156.235
  H      -19.673      12.914     157.169
  H      -24.251      13.996     156.274
  H      -23.773      12.775     157.468
  H      -24.164      12.286     155.790
  H      -15.153      13.236     161.986
  H      -16.762      12.813     162.521
  H      -16.230      14.476     162.581

 3  4  5  6  7  8  9  10  11  12  22  25  29  30  31  32 0
 6-311+G(2d,p)
 ****
 33  36  37 0
 6-311+G(2d,p)
 ****
 1  2  13  14  15  16  17  18  19  20  21  23  24  26 0
 3-21G
 ****
 27  28  34  35  38  39  40  41  42  43  44  45  46  47  48 0
 3-21G
 ****


