%nproc=1
%NoSave
%Mem=1900MB
#P OB98/GEN NMR

erre ene a

0 1
  C       55.887      75.776    -682.505
  O       55.032      74.891    -683.204
  H       56.182      75.337    -681.547
  H       56.788      75.943    -683.107
  H       55.390      76.738    -682.343
  P       53.636      74.542    -682.498
  C       54.371      72.138    -681.844
  O       53.470      72.948    -682.591
  C       53.635      70.928    -681.271
  O       52.768      71.343    -680.196
  C       52.740      70.196    -682.262
  O       53.478      69.327    -683.105
  C       51.840      69.421    -681.308
  O       52.534      68.254    -680.833
  C       51.639      70.424    -680.165
  N       46.799      70.826    -678.548
  C       47.809      69.991    -678.195
  N       49.073      69.962    -678.655
  C       49.270      70.930    -679.566
  C       48.351      71.865    -680.016
  C       47.057      71.786    -679.469
  N       46.019      72.602    -679.889
  N       48.919      72.688    -680.962
  C       50.150      72.243    -681.102
  N       50.412      71.189    -680.272
  O       52.554      75.103    -683.545
  O       53.444      75.134    -681.142
  H       53.398      68.563    -680.486
  H       52.265      75.989    -683.266
  H       47.554      69.245    -677.440
  H       50.883      72.651    -681.786
  H       51.647      69.937    -679.181
  H       50.909      69.078    -681.781
  H       52.120      70.892    -682.843
  H       54.388      70.248    -680.846
  H       54.797      72.728    -681.030
  H       45.102      72.175    -679.798
  H       46.204      73.105    -680.750
  H       55.179      71.810    -682.510
  P       53.677      69.753    -684.638
  C       51.461      68.764    -685.534
  O       52.881      68.679    -685.521
  O       55.209      69.417    -684.907
  O       53.375      71.195    -684.940
  H       55.683      70.210    -685.228
  H       51.063      67.992    -686.159
  H       51.164      69.719    -685.914
  H       51.087      68.645    -684.538

 6  7  8  9  10  11  12  13  14  15  25  28  32  33  34  35 0
 6-311+G(2d,p)
 ****
 36  39  40 0
 6-311+G(2d,p)
 ****
 1  2  3  4  5  16  17  18  19  20  21  22  23  24 0
 3-21G
 ****
 26  27  29  30  31  37  38  41  42  43  44  45  46  47  48 0
 3-21G
 ****


