%nproc=1
%NoSave
%Mem=1900MB
#P OB98/GEN NMR

erre ene a

0 1
  C      -28.320    -129.853      72.117
  O      -27.541    -130.131      70.950
  P      -28.177    -131.176      69.905
  C      -29.602    -129.407      68.654
  O      -28.559    -130.365      68.570
  C      -29.974    -128.860      67.271
  O      -28.933    -127.966      66.763
  C      -30.185    -129.948      66.209
  O      -31.222    -129.483      65.334
  C      -28.864    -129.947      65.460
  O      -28.986    -130.566      64.178
  C      -28.574    -128.443      65.444
  N      -25.557    -125.115      63.139
  C      -26.932    -125.191      63.167
  N      -27.609    -124.209      62.536
  N      -27.593    -126.146      63.771
  C      -26.789    -127.045      64.398
  C      -25.412    -127.069      64.449
  C      -24.693    -126.020      63.751
  O      -23.475    -125.904      63.694
  N      -24.952    -128.120      65.214
  C      -26.058    -128.761      65.556
  N      -27.195    -128.119      65.137
  O      -29.596    -131.521      70.561
  O      -27.347    -132.400      69.697
  H      -29.748    -130.145      63.721
  H      -29.555    -132.381      71.020
  H      -25.100    -124.365      62.641
  H      -26.094    -129.677      66.127
  H      -29.187    -127.909      64.706
  H      -28.100    -130.486      66.035
  H      -27.162    -123.412      62.094
  H      -30.441    -130.931      66.615
  H      -28.623    -124.217      62.579
  H      -30.892    -128.262      67.372
  H      -29.298    -128.576      69.297
  H      -30.470    -129.864      69.143
  P      -32.704    -130.056      65.556
  C      -33.871    -128.315      67.080
  O      -33.673    -128.793      65.762
  O      -32.620    -130.710      67.019
  O      -33.146    -131.062      64.542
  H      -33.142    -131.537      67.034
  H      -34.132    -127.252      67.031
  H      -32.971    -128.426      67.694
  H      -34.699    -128.858      67.549
  H      -27.800    -129.150      72.734
  H      -28.478    -130.759      72.664
  H      -29.264    -129.442      71.826

 3  4  5  6  7  8  9  10  11  12  23  26  30  31 0
 6-311+G(2d,p)
 ****
 33  35  36  37  38 0
 6-311+G(2d,p)
 ****
 1  2  13  14  15  16  17  18  19  20  21  22  24  25 0
 3-21G
 ****
 27  28  29  32  34  39  40  41  42  43  44  45  46  47  48  49 0
 3-21G
 ****


