%nproc=1
%NoSave
%Mem=1900MB
#P OB98/GEN NMR

erre ene a

0 1
  C      -19.444    -510.792    -898.310
  O      -20.387    -509.939    -899.040
  P      -21.946    -510.100    -898.780
  C      -22.294    -508.553    -896.670
  O      -22.256    -509.886    -897.180
  C      -23.406    -508.386    -895.630
  O      -24.703    -508.454    -896.330
  C      -23.447    -509.464    -894.500
  O      -23.968    -508.781    -893.350
  C      -24.486    -510.456    -895.070
  O      -25.027    -511.294    -894.030
  C      -25.504    -509.502    -895.680
  N      -26.392    -510.097    -896.690
  C      -27.300    -511.062    -896.220
  O      -27.358    -511.478    -895.030
  N      -28.120    -511.587    -897.170
  C      -28.091    -511.353    -898.500
  O      -28.838    -511.896    -899.280
  C      -27.101    -510.347    -898.940
  C      -26.274    -509.842    -898.030
  O      -22.149    -511.720    -898.880
  O      -22.855    -509.366    -899.720
  H      -25.238    -510.637    -893.270
  H      -22.943    -511.910    -899.430
  H      -28.783    -512.294    -896.810
  H      -27.043    -510.107    -900.000
  H      -25.572    -509.077    -898.370
  H      -26.092    -508.987    -894.890
  H      -23.997    -511.106    -895.810
  H      -22.466    -509.902    -894.360
  H      -23.329    -507.337    -895.220
  H      -22.415    -507.884    -897.510
  H      -21.285    -508.326    -896.200
  P      -23.022    -507.600    -892.690
  C      -24.639    -505.548    -892.780
  O      -23.525    -506.228    -893.310
  O      -21.633    -507.873    -893.460
  O      -22.924    -507.700    -891.170
  H      -21.743    -508.042    -894.410
  H      -24.623    -505.570    -891.640
  H      -25.558    -506.001    -893.130
  H      -24.599    -504.528    -893.050
  H      -18.444    -510.552    -898.605
  H      -19.645    -511.819    -898.534
  H      -19.555    -510.628    -897.258

 3  4  5  6  7  8  9  10  11  12  13  23  28  29  30  31  32 0
 6-311+G(2d,p)
 ****
 33  34 0
 6-311+G(2d,p)
 ****
 1  2  14  15  16  17  18  19  20  21  22  24  25  26 0
 3-21G
 ****
 27  35  36  37  38  39  40  41  42  43  44  45 0
 3-21G
 ****


