%nproc=1
%NoSave
%Mem=1900MB
#P OB98/GEN NMR

erre ene a

0 1
  C      252.684      -4.950    -545.884
  O      252.771      -3.605    -546.306
  H      251.993      -5.033    -545.040
  H      252.304      -5.553    -546.715
  H      253.673      -5.330    -545.597
  P      253.475      -2.572    -545.298
  C      251.147      -2.021    -544.276
  O      252.481      -2.449    -544.038
  C      250.684      -1.068    -543.172
  O      250.459      -1.840    -541.953
  C      251.707       0.034    -542.841
  O      251.003       1.249    -542.572
  C      252.369      -0.476    -541.571
  O      252.917       0.581    -540.789
  C      251.219      -1.218    -540.902
  N      252.189      -2.184    -535.973
  C      251.627      -1.124    -536.593
  N      251.394      -0.950    -537.914
  C      251.778      -2.036    -538.608
  C      252.374      -3.187    -538.119
  C      252.589      -3.234    -536.729
  N      253.206      -4.290    -536.093
  N      252.657      -4.069    -539.145
  C      252.235      -3.453    -540.243
  N      251.700      -2.222    -539.964
  O      253.301      -1.172    -546.056
  O      254.902      -2.858    -544.968
  H      252.185       1.157    -540.482
  H      253.979      -1.092    -546.753
  H      251.313      -0.305    -535.943
  H      252.298      -3.849    -541.247
  H      250.557      -0.546    -540.337
  H      253.182      -1.167    -541.833
  H      252.423       0.195    -543.652
  H      249.713      -0.642    -543.459
  H      250.493      -2.899    -544.307
  H      253.373      -4.219    -535.103
  H      253.566      -5.058    -536.648
  H      251.098      -1.509    -545.249
  P      250.432       2.047    -543.843
  C      252.338       3.811    -543.740
  O      251.649       2.847    -544.530
  O      249.537       3.201    -543.186
  O      249.629       1.206    -544.774
  H      248.660       3.228    -543.610
  H      253.115       4.260    -544.323
  H      252.765       3.331    -542.884
  H      251.651       4.566    -543.420

 6  7  8  9  10  11  12  13  14  15  25  28  32  33  34  35 0
 6-311+G(2d,p)
 ****
 36  39  40 0
 6-311+G(2d,p)
 ****
 1  2  3  4  5  16  17  18  19  20  21  22  23  24 0
 3-21G
 ****
 26  27  29  30  31  37  38  41  42  43  44  45  46  47 0
 3-21G
 ****
 48 0
 3-21G
 ****


