%nproc=1
%NoSave
%Mem=1900MB
#P OB98/GEN NMR

erre ene a

0 1
  C      584.334    -355.103    -737.041
  O      583.457    -355.326    -735.925
  P      581.963    -355.816    -736.231
  C      581.687    -357.425    -734.208
  O      581.279    -356.225    -734.841
  C      580.928    -357.626    -732.891
  O      581.355    -356.695    -731.875
  C      579.418    -357.423    -733.027
  O      578.774    -358.584    -733.516
  C      579.027    -357.177    -731.582
  O      578.933    -358.437    -730.881
  C      580.207    -356.357    -731.051
  N      579.905    -352.131    -728.281
  C      580.174    -353.434    -727.894
  N      580.404    -353.639    -726.579
  N      580.220    -354.450    -728.733
  C      579.986    -354.085    -730.014
  C      579.702    -352.835    -730.523
  C      579.650    -351.731    -729.587
  O      579.402    -350.563    -729.868
  N      579.529    -352.875    -731.875
  C      579.706    -354.144    -732.199
  N      579.975    -354.922    -731.100
  O      582.190    -357.233    -736.945
  O      581.169    -354.885    -737.090
  H      578.441    -358.261    -730.055
  H      581.446    -357.421    -737.549
  H      579.884    -351.394    -727.593
  H      579.662    -354.536    -733.201
  H      580.460    -356.606    -730.012
  H      578.045    -356.687    -731.484
  H      580.435    -352.897    -725.889
  H      579.190    -356.530    -733.639
  H      580.633    -354.577    -726.288
  H      581.119    -358.646    -732.534
  H      582.767    -357.402    -734.003
  H      581.532    -358.266    -734.889
  P      578.078    -358.508    -734.967
  C      578.509    -361.064    -735.129
  O      577.597    -359.999    -735.302
  O      579.324    -358.267    -735.938
  O      577.046    -357.439    -735.101
  H      579.036    -357.730    -736.712
  H      577.967    -362.008    -735.246
  H      578.952    -361.042    -734.124
  H      579.306    -361.010    -735.879
  H      585.290    -354.781    -736.684
  H      583.918    -354.349    -737.676
  H      584.447    -356.012    -737.593

 3  4  5  6  7  8  9  10  11  12  23  26  30  31 0
 6-311+G(2d,p)
 ****
 33  35  36  37  38 0
 6-311+G(2d,p)
 ****
 1  2  13  14  15  16  17  18  19  20  21  22  24  25 0
 3-21G
 ****
 27  28  29  32  34  39  40  41  42  43  44  45  46  47  48  49 0
 3-21G
 ****


