%nproc=1
%NoSave
%Mem=1900MB
#P OB98/GEN NMR

erre ene a

0 1
  C       70.989     175.687    -173.712
  O       72.208     175.805    -174.413
  H       70.882     174.658    -173.362
  H       70.152     175.917    -174.377
  H       70.973     176.358    -172.849
  P       72.650     177.273    -174.885
  C       74.973     176.156    -174.575
  O       74.229     177.207    -175.173
  C       76.295     175.951    -175.316
  O       76.026     175.271    -176.569
  C       77.029     177.255    -175.635
  O       78.434     177.039    -175.474
  C       76.719     177.493    -177.101
  O       77.708     178.290    -177.751
  C       76.602     176.057    -177.630
  N       75.797     175.998    -178.847
  C       76.326     176.621    -179.981
  O       77.417     177.192    -179.922
  N       75.587     176.635    -181.135
  C       74.386     176.148    -181.135
  N       73.691     176.218    -182.302
  C       73.759     175.542    -179.943
  C       74.517     175.494    -178.848
  O       72.559     178.138    -173.544
  O       71.843     177.858    -175.995
  H       77.673     179.195    -177.370
  H       72.314     179.063    -173.735
  H       72.746     175.172    -179.984
  H       74.140     175.074    -177.923
  H       77.596     175.644    -177.846
  H       75.756     178.010    -177.193
  H       76.715     178.092    -175.006
  H       76.926     175.282    -174.719
  H       74.148     176.658    -183.092
  H       74.389     175.232    -174.627
  H       72.735     175.912    -182.405
  H       75.159     176.396    -173.522
  P       78.988     176.989    -173.971
  C       81.235     176.050    -174.874
  O       80.590     176.992    -174.028
  O       78.626     175.505    -173.494
  O       78.383     178.019    -173.075
  H       77.900     175.532    -172.845
  H       82.295     176.175    -174.804
  H       80.923     176.207    -175.885
  H       80.972     175.059    -174.569

 6  7  8  9  10  11  12  13  14  15  16  26  30  31  32  33  35 0
 6-311+G(2d,p)
 ****
 37  38 0
 6-311+G(2d,p)
 ****
 1  2  3  4  5  17  18  19  20  21  22  23  24  25 0
 3-21G
 ****
 27  28  29  34  36  39  40  41  42  43  44  45  46 0
 3-21G
 ****


