%nproc=1
%NoSave
%Mem=1900MB
#P OB98/GEN NMR

erre ene a

0 1
  C      334.690      13.528    -164.937
  O      335.741      14.451    -164.657
  P      336.165      14.700    -163.131
  C      334.210      16.364    -162.948
  O      334.892      15.271    -162.342
  C      332.887      16.643    -162.230
  O      333.077      16.813    -160.813
  C      332.205      17.916    -162.702
  O      331.613      17.733    -163.978
  C      331.226      18.170    -161.564
  O      330.038      17.380    -161.720
  C      332.027      17.685    -160.336
  N      332.562      18.773    -159.531
  C      331.644      19.752    -159.135
  O      330.471      19.686    -159.497
  N      332.088      20.788    -158.350
  C      333.335      20.845    -158.000
  N      333.718      21.890    -157.220
  C      334.336      19.838    -158.408
  C      333.886      18.845    -159.171
  O      337.435      15.458    -162.927
  O      336.287      13.207    -162.551
  H      329.496      17.548    -160.924
  H      336.960      13.197    -161.843
  H      335.365      19.927    -158.086
  H      334.555      18.065    -159.517
  H      331.390      17.072    -159.685
  H      330.916      19.219    -161.524
  H      332.937      18.732    -162.750
  H      332.223      15.782    -162.393
  H      333.014      22.573    -156.965
  H      334.021      16.138    -164.001
  H      334.653      21.996    -156.856
  H      334.861      17.243    -162.927
  P      332.485      18.117    -165.264
  C      331.442      20.475    -165.010
  O      332.588      19.714    -165.328
  O      331.506      17.762    -166.482
  O      333.783      17.384    -165.384
  H      332.030      17.445    -167.243
  H      331.754      21.503    -164.793
  H      330.924      20.073    -164.135
  H      330.762      20.489    -165.864
  H      334.532      13.478    -165.994
  H      333.791      13.855    -164.457
  H      334.959      12.559    -164.570

 3  4  5  6  7  8  9  10  11  12  13  23  27  28  29  30  32 0
 6-311+G(2d,p)
 ****
 34  35 0
 6-311+G(2d,p)
 ****
 1  2  14  15  16  17  18  19  20  21  22  24  25  26 0
 3-21G
 ****
 31  33  36  37  38  39  40  41  42  43  44  45  46 0
 3-21G
 ****


