%nproc=1
%NoSave
%Mem=1900MB
#P OB98/GEN NMR

erre ene a

0 1
  C       21.826    -153.052     -85.271
  O       22.767    -153.836     -85.976
  H       22.073    -151.997     -85.413
  H       21.871    -153.280     -84.204
  H       20.814    -153.227     -85.646
  P       22.519    -155.414     -86.102
  C       24.236    -155.643     -84.192
  O       23.792    -156.137     -85.449
  C       25.751    -155.790     -84.082
  O       26.214    -155.250     -82.825
  C       26.239    -157.235     -84.116
  O       26.202    -157.750     -85.433
  C       27.633    -157.076     -83.527
  O       28.556    -156.602     -84.519
  C       27.387    -156.001     -82.441
  N       27.233    -156.562     -81.099
  C       28.401    -156.734     -80.362
  O       29.518    -156.475     -80.805
  N       28.241    -157.235     -79.098
  C       27.063    -157.650     -78.545
  O       26.981    -158.144     -77.424
  C       25.868    -157.478     -79.382
  C       26.005    -156.949     -80.600
  O       22.146    -155.907     -87.460
  O       21.360    -155.698     -85.034
  H       28.675    -157.330     -85.159
  H       20.501    -155.771     -85.492
  H       29.076    -157.379     -78.554
  H       24.917    -157.800     -78.979
  H       25.135    -156.819     -81.234
  H       28.221    -155.288     -82.418
  H       28.036    -158.013     -83.144
  H       25.640    -157.853     -83.437
  H       26.211    -155.205     -84.889
  H       23.753    -156.221     -83.396
  H       23.941    -154.593     -84.099
  P       25.454    -159.127     -85.753
  C       27.701    -160.219     -86.318
  O       26.380    -159.955     -86.772
  O       24.029    -158.995     -86.174
  O       25.580    -159.960     -84.393
  H       24.717    -159.978     -83.934
  H       28.231    -160.772     -87.065
  H       27.660    -160.790     -85.414
  H       28.206    -159.294     -86.133

 6  7  8  9  10  11  12  13  14  15  16  26  31  32  33  34  35 0
 6-311+G(2d,p)
 ****
 36  37 0
 6-311+G(2d,p)
 ****
 1  2  3  4  5  17  18  19  20  21  22  23  24  25 0
 3-21G
 ****
 27  28  29  30  38  39  40  41  42  43  44  45 0
 3-21G
 ****


