%nproc=1
%NoSave
%Mem=1900MB
#P OB98/GEN NMR

erre ene a

0 1
  C      107.024    -442.210    -369.047
  O      106.105    -441.359    -368.398
  H      107.913    -441.631    -369.314
  H      106.580    -442.604    -369.967
  H      107.327    -443.039    -368.399
  P      104.838    -442.003    -367.650
  C      103.218    -440.017    -367.992
  O      103.991    -440.768    -367.068
  C      102.830    -438.667    -367.382
  O      102.158    -438.920    -366.112
  C      104.036    -437.752    -367.096
  O      103.628    -436.389    -367.297
  C      104.274    -438.015    -365.623
  O      105.025    -436.983    -365.022
  C      102.842    -438.142    -365.110
  N      102.798    -438.755    -363.786
  C      101.934    -438.194    -362.862
  O      101.220    -437.210    -363.091
  N      101.948    -438.739    -361.604
  C      102.815    -439.704    -361.170
  O      102.849    -440.101    -360.014
  C      103.754    -440.229    -362.182
  C      103.701    -439.737    -363.422
  O      105.138    -443.080    -366.661
  O      103.896    -442.516    -368.843
  H      105.951    -437.015    -365.330
  H      103.277    -443.206    -368.520
  H      101.316    -438.352    -360.925
  H      104.463    -440.982    -361.869
  H      104.381    -440.091    -364.192
  H      102.355    -437.158    -365.064
  H      104.826    -438.946    -365.489
  H      104.906    -437.980    -367.731
  H      102.099    -438.176    -368.037
  H      102.317    -440.599    -368.226
  H      103.791    -439.866    -368.914
  P      103.982    -435.592    -368.649
  C      105.717    -433.981    -367.651
  O      104.455    -434.094    -368.310
  O      102.918    -435.671    -369.700
  O      105.318    -436.295    -369.186
  H      105.241    -436.455    -370.140
  H      105.935    -432.949    -367.473
  H      106.481    -434.406    -368.268
  H      105.680    -434.504    -366.718

 6  7  8  9  10  11  12  13  14  15  16  26  31  32  33  34  35 0
 6-311+G(2d,p)
 ****
 36  37 0
 6-311+G(2d,p)
 ****
 1  2  3  4  5  17  18  19  20  21  22  23  24  25 0
 3-21G
 ****
 27  28  29  30  38  39  40  41  42  43  44  45 0
 3-21G
 ****


