%nproc=1
%NoSave
%Mem=1900MB
#P OB98/GEN NMR

erre ene a

0 1
  C      -30.617     141.180    -528.489
  O      -29.829     140.613    -527.457
  P      -28.965     139.312    -527.807
  C      -27.008     140.713    -528.823
  O      -27.987     139.702    -529.021
  C      -25.671     140.074    -528.449
  O      -25.726     139.555    -527.097
  C      -25.298     138.889    -529.330
  O      -24.768     139.310    -530.573
  C      -24.277     138.164    -528.455
  O      -22.975     138.751    -528.593
  C      -24.841     138.415    -527.039
  N      -25.515     137.243    -526.489
  C      -25.766     137.272    -525.118
  O      -25.424     138.211    -524.395
  N      -26.383     136.173    -524.600
  C      -26.719     135.036    -525.283
  O      -27.217     134.055    -524.752
  C      -26.405     135.050    -526.723
  C      -25.824     136.128    -527.246
  O      -30.022     138.316    -528.476
  O      -28.275     138.686    -526.640
  H      -23.046     139.669    -528.270
  H      -29.811     137.392    -528.233
  H      -26.593     136.180    -523.613
  H      -26.657     134.168    -527.300
  H      -25.573     136.154    -528.303
  H      -24.035     138.699    -526.355
  H      -24.183     137.110    -528.716
  H      -26.171     138.237    -529.473
  H      -24.892     140.845    -528.489
  H      -27.338     141.385    -528.025
  H      -26.909     141.302    -529.746
  P      -24.984     138.327    -531.826
  C      -27.282     139.271    -532.655
  O      -26.577     138.233    -532.008
  O      -24.552     136.934    -531.184
  O      -24.200     138.733    -533.033
  H      -24.764     136.879    -530.242
  H      -26.691     139.708    -533.463
  H      -27.530     140.045    -531.927
  H      -28.208     138.864    -533.072
  H      -31.135     142.037    -528.112
  H      -31.327     140.457    -528.834
  H      -29.984     141.474    -529.300

 3  4  5  6  7  8  9  10  11  12  13  23  28  29  30  31  32 0
 6-311+G(2d,p)
 ****
 33  34 0
 6-311+G(2d,p)
 ****
 1  2  14  15  16  17  18  19  20  21  22  24  25  26 0
 3-21G
 ****
 27  35  36  37  38  39  40  41  42  43  44  45 0
 3-21G
 ****


