%nproc=1
%NoSave
%Mem=1900MB
#P OB98/GEN NMR

erre ene a

0 1
  C      -84.203     -44.764    -464.894
  O      -84.416     -45.765    -465.873
  H      -83.849     -45.247    -463.978
  H      -85.143     -44.252    -464.672
  H      -83.450     -44.044    -465.225
  P      -84.807     -45.315    -467.361
  C      -87.347     -44.947    -467.646
  O      -86.107     -44.377    -467.250
  C      -88.463     -44.557    -466.670
  O      -88.591     -43.109    -466.661
  C      -89.831     -45.146    -467.024
  O      -90.522     -45.495    -465.823
  C      -90.545     -43.995    -467.714
  O      -91.963     -44.096    -467.609
  C      -89.959     -42.785    -466.982
  N      -92.291     -38.341    -467.577
  C      -92.422     -39.294    -466.574
  N      -93.314     -39.032    -465.599
  N      -91.734     -40.408    -466.540
  C      -90.860     -40.524    -467.572
  C      -90.637     -39.660    -468.621
  C      -91.424     -38.443    -468.655
  O      -91.367     -37.578    -469.520
  N      -89.686     -40.146    -469.472
  C      -89.324     -41.303    -468.949
  N      -90.020     -41.583    -467.800
  O      -84.932     -46.438    -468.341
  O      -83.653     -44.293    -467.783
  H      -92.192     -43.932    -466.671
  H      -83.034     -44.705    -468.409
  H      -92.858     -37.508    -467.558
  H      -88.582     -41.975    -469.358
  H      -90.487     -42.561    -466.044
  H      -90.277     -43.978    -468.778
  H      -93.861     -38.176    -465.552
  H      -89.749     -46.024    -467.672
  H      -93.406     -39.687    -464.843
  H      -88.157     -44.852    -465.660
  H      -87.235     -46.036    -467.661
  H      -87.596     -44.606    -468.658
  P      -90.652     -47.041    -465.422
  C      -92.612     -47.655    -466.965
  O      -91.231     -47.857    -466.680
  O      -91.337     -47.314    -464.125
  O      -89.116     -47.528    -465.372
  H      -89.020     -48.198    -464.666
  H      -92.890     -48.242    -467.815
  H      -92.785     -46.620    -467.174
  H      -93.198     -47.952    -466.120

 6  7  8  9  10  11  12  13  14  15  26  29  33  34 0
 6-311+G(2d,p)
 ****
 36  38  39  40  41 0
 6-311+G(2d,p)
 ****
 1  2  3  4  5  16  17  18  19  20  21  22  23  24  25 0
 3-21G
 ****
 27  28  30  31  32  35  37  42  43  44  45  46  47 0
 3-21G
 ****
 48  49 0
 3-21G
 ****


