%nproc=1
%NoSave
%Mem=1900MB
#P OB98/GEN NMR

erre ene a

0 1
  C      864.330     -84.605    -215.664
  O      863.915     -85.934    -215.402
  P      862.551     -86.214    -214.608
  C      863.746     -87.506    -212.733
  O      862.902     -86.406    -213.054
  C      863.710     -87.791    -211.233
  O      863.893     -86.573    -210.474
  C      862.385     -88.355    -210.738
  O      862.203     -89.707    -211.126
  C      862.507     -88.126    -209.241
  O      863.307     -89.153    -208.627
  C      863.241     -86.769    -209.192
  N      862.352     -85.663    -208.870
  C      861.657     -85.763    -207.665
  O      861.756     -86.783    -206.970
  N      860.868     -84.708    -207.275
  C      860.690     -83.711    -208.080
  N      859.947     -82.671    -207.604
  C      861.272     -83.641    -209.426
  C      862.102     -84.636    -209.752
  O      861.686     -87.282    -215.195
  O      861.796     -84.792    -214.630
  H      860.881     -84.931    -214.936
  H      863.352     -88.934    -207.670
  H      861.039     -82.816    -210.084
  H      862.598     -84.655    -210.718
  H      864.047     -86.805    -208.450
  H      861.530     -88.134    -208.734
  H      861.553     -87.759    -211.140
  H      864.532     -88.472    -210.992
  H      859.573     -82.737    -206.670
  H      864.767     -87.262    -213.034
  H      860.016     -81.729    -208.005
  H      863.414     -88.384    -213.292
  P      860.706     -90.271    -211.139
  C      861.169     -91.841    -209.133
  O      860.376     -90.799    -209.663
  O      860.818     -91.616    -212.013
  O      859.697     -89.327    -211.722
  H      860.017     -91.721    -212.543
  H      861.060     -91.837    -208.043
  H      862.225     -91.711    -209.387
  H      860.817     -92.802    -209.523
  H      865.256     -84.620    -216.200
  H      864.461     -84.083    -214.739
  H      863.586     -84.108    -216.251

 3  4  5  6  7  8  9  10  11  12  13  24  27  28  29  30  32 0
 6-311+G(2d,p)
 ****
 34  35 0
 6-311+G(2d,p)
 ****
 1  2  14  15  16  17  18  19  20  21  22  23  25  26 0
 3-21G
 ****
 31  33  36  37  38  39  40  41  42  43  44  45  46 0
 3-21G
 ****


