%nproc=1
%NoSave
%Mem=1900MB
#P OB98/GEN NMR

erre ene a

0 1
  C      855.368     195.328     168.723
  O      854.764     194.072     168.380
  P      853.596     193.518     169.319
  C      852.059     192.429     167.520
  O      852.232     193.476     168.461
  C      850.616     192.410     167.001
  O      849.718     191.798     167.954
  C      850.041     193.790     166.742
  O      850.445     194.306     165.473
  C      848.543     193.498     166.736
  O      848.167     192.943     165.461
  C      848.417     192.441     167.829
  N      844.568     194.214     170.695
  C      844.611     193.773     169.425
  N      845.678     193.337     168.725
  C      846.787     193.365     169.483
  C      846.896     193.784     170.800
  C      845.712     194.222     171.419
  N      845.672     194.670     172.720
  N      848.193     193.675     171.243
  C      848.860     193.186     170.216
  N      848.052     192.986     169.128
  O      853.341     194.725     170.339
  O      853.933     192.256     170.037
  H      848.438     193.584     164.777
  H      853.093     194.372     171.214
  H      843.668     193.779     168.887
  H      849.920     192.956     170.220
  H      847.685     191.666     167.589
  H      847.942     194.396     166.883
  H      850.290     194.490     167.552
  H      850.593     191.822     166.071
  H      852.307     191.464     167.970
  H      844.782     194.943     173.105
  H      846.516     194.661     173.262
  H      852.762     192.573     166.693
  P      851.309     195.652     165.460
  C      853.394     194.410     164.550
  O      852.842     195.197     165.572
  O      850.978     196.305     166.892
  O      850.988     196.575     164.332
  H      851.032     197.277     166.837
  H      854.484     194.440     164.628
  H      853.098     194.779     163.560
  H      853.072     193.366     164.662
  H      856.127     195.566     168.008
  H      855.805     195.259     169.697
  H      854.622     196.095     168.720

 3  4  5  6  7  8  9  10  11  12  22  25  29  30  31  32 0
 6-311+G(2d,p)
 ****
 33  36  37 0
 6-311+G(2d,p)
 ****
 1  2  13  14  15  16  17  18  19  20  21  23  24  26 0
 3-21G
 ****
 27  28  34  35  38  39  40  41  42  43  44  45  46  47  48 0
 3-21G
 ****


