%nproc=1
%NoSave
%Mem=1900MB
#P OB98/GEN NMR

erre ene a

0 1
  C      -77.022     327.881     531.828
  O      -77.909     327.390     530.845
  H      -77.571     328.553     532.492
  H      -76.216     328.446     531.352
  H      -76.603     327.065     532.425
  P      -77.442     326.172     529.915
  C      -76.218     327.341     527.964
  O      -76.089     326.653     529.201
  C      -74.895     327.298     527.198
  O      -74.519     325.897     527.014
  C      -74.975     327.948     525.799
  O      -73.714     328.558     525.510
  C      -75.181     326.736     524.914
  O      -74.846     326.997     523.575
  C      -74.286     325.710     525.606
  N      -74.590     324.354     525.167
  C      -73.931     323.895     524.029
  O      -73.133     324.576     523.387
  N      -74.276     322.644     523.601
  C      -75.273     321.870     524.119
  O      -75.593     320.788     523.641
  C      -75.975     322.427     525.289
  C      -75.604     323.619     525.757
  O      -78.476     325.627     528.985
  O      -76.908     325.067     530.943
  H      -73.927     327.324     523.519
  H      -76.910     324.186     530.527
  H      -73.801     322.297     522.782
  H      -76.779     321.842     525.714
  H      -76.106     324.066     526.604
  H      -73.227     325.921     525.411
  H      -76.232     326.427     524.943
  H      -75.776     328.685     525.718
  H      -74.113     327.761     527.808
  H      -76.494     328.376     528.177
  H      -77.013     326.875     527.371
  P      -73.539     330.155     525.448
  C      -74.111     331.172     523.156
  O      -74.611     330.797     524.438
  O      -72.135     330.608     525.206
  O      -74.033     330.658     526.883
  H      -73.397     331.311     527.231
  H      -74.905     331.585     522.570
  H      -73.714     330.310     522.662
  H      -73.338     331.902     523.274

 6  7  8  9  10  11  12  13  14  15  16  26  31  32  33  34  35 0
 6-311+G(2d,p)
 ****
 36  37 0
 6-311+G(2d,p)
 ****
 1  2  3  4  5  17  18  19  20  21  22  23  24  25 0
 3-21G
 ****
 27  28  29  30  38  39  40  41  42  43  44  45 0
 3-21G
 ****


