%nproc=1
%NoSave
%Mem=1900MB
#P OB98/GEN NMR

erre ene a

0 1
  C     -184.957     373.633    -198.470
  O     -184.706     374.961    -198.047
  H     -185.884     373.619    -199.054
  H     -185.079     372.984    -197.601
  H     -184.142     373.263    -199.101
  P     -183.280     375.317    -197.407
  C     -182.718     376.933    -199.345
  O     -182.886     376.782    -197.938
  C     -182.232     378.348    -199.683
  O     -183.389     379.251    -199.654
  C     -181.185     378.907    -198.698
  O     -180.318     379.774    -199.444
  C     -182.073     379.705    -197.752
  O     -181.323     380.575    -196.945
  C     -183.036     380.328    -198.764
  N     -184.225     380.918    -198.151
  C     -184.121     382.223    -197.679
  O     -183.099     382.908    -197.769
  N     -185.242     382.727    -197.075
  C     -186.423     382.069    -196.898
  O     -187.405     382.578    -196.369
  C     -186.462     380.681    -197.392
  C     -185.377     380.174    -197.983
  O     -182.217     374.282    -197.569
  O     -183.617     375.578    -195.860
  H     -183.421     374.772    -195.343
  H     -180.898     381.271    -197.497
  H     -185.182     383.676    -196.728
  H     -187.380     380.125    -197.247
  H     -185.371     379.156    -198.362
  H     -182.529     381.093    -199.364
  H     -182.607     379.028    -197.076
  H     -180.595     378.126    -198.213
  H     -181.852     378.354    -200.713
  H     -183.684     376.738    -199.824
  H     -181.990     376.193    -199.700
  P     -178.729     379.855    -199.207
  C     -178.276     379.805    -201.749
  O     -178.023     380.464    -200.517
  O     -178.127     378.559    -198.759
  O     -178.521     380.986    -198.091
  H     -177.774     380.734    -197.513
  H     -177.751     380.306    -202.536
  H     -179.326     379.822    -201.953
  H     -177.941     378.791    -201.686

 6  7  8  9  10  11  12  13  14  15  16  27  31  32  33  34  35 0
 6-311+G(2d,p)
 ****
 36  37 0
 6-311+G(2d,p)
 ****
 1  2  3  4  5  17  18  19  20  21  22  23  24  25 0
 3-21G
 ****
 26  28  29  30  38  39  40  41  42  43  44  45 0
 3-21G
 ****


