%nproc=1
%NoSave
%Mem=1900MB
#P OB98/GEN NMR

erre ene a

0 1
  C      -78.642      -6.998     -19.243
  O      -78.143      -5.885     -19.956
  H      -78.690      -7.852     -19.925
  H      -79.649      -6.788     -18.880
  H      -77.985      -7.252     -18.408
  P      -77.837      -4.529     -19.160
  C      -80.108      -3.405     -19.645
  O      -79.245      -3.945     -18.655
  C      -81.086      -2.402     -19.024
  O      -81.910      -1.844     -20.080
  C      -82.019      -3.019     -17.979
  O      -82.231      -2.078     -16.927
  C      -83.310      -3.237     -18.743
  O      -84.451      -3.241     -17.889
  C      -83.289      -2.072     -19.732
  N      -87.982      -2.352     -21.584
  C      -87.537      -1.935     -20.346
  N      -88.480      -1.552     -19.459
  N      -86.275      -1.899     -20.003
  C      -85.440      -2.289     -20.996
  C      -85.756      -2.723     -22.261
  C      -87.157      -2.778     -22.620
  O      -87.612      -3.154     -23.695
  N      -84.629      -3.050     -22.972
  C      -83.634      -2.815     -22.137
  N      -84.074      -2.364     -20.921
  O      -76.982      -3.545     -19.896
  O      -77.139      -5.013     -17.807
  H      -85.235      -3.087     -18.459
  H      -76.180      -4.843     -17.828
  H      -88.965      -2.371     -21.791
  H      -82.585      -2.958     -22.359
  H      -83.696      -1.150     -19.300
  H      -83.272      -4.199     -19.268
  H      -89.468      -1.530     -19.664
  H      -81.621      -3.946     -17.566
  H      -88.179      -1.212     -18.555
  H      -80.509      -1.574     -18.597
  H      -80.666      -4.229     -20.101
  H      -79.507      -2.914     -20.419
  P      -81.799      -2.469     -15.432
  C      -84.052      -3.265     -14.488
  O      -82.752      -3.652     -14.911
  O      -81.645      -1.322     -14.489
  O      -80.398      -3.220     -15.654
  H      -79.812      -3.023     -14.897
  H      -84.594      -4.129     -14.164
  H      -84.570      -2.804     -15.303
  H      -83.972      -2.570     -13.678

 6  7  8  9  10  11  12  13  14  15  26  29  33  34 0
 6-311+G(2d,p)
 ****
 36  38  39  40  41 0
 6-311+G(2d,p)
 ****
 1  2  3  4  5  16  17  18  19  20  21  22  23  24  25 0
 3-21G
 ****
 27  28  30  31  32  35  37  42  43  44  45  46  47 0
 3-21G
 ****
 48  49 0
 3-21G
 ****


