%nproc=1
%NoSave
%Mem=1900MB
#P OB98/GEN NMR

erre ene a

0 1
  C      269.047     425.178    -239.440
  O      268.376     426.354    -239.833
  P      268.927     427.798    -239.395
  C      267.465     428.036    -237.287
  O      268.776     427.869    -237.789
  C      267.498     428.211    -235.771
  O      268.012     427.022    -235.119
  C      268.426     429.323    -235.298
  O      268.078     430.652    -235.641
  C      268.547     429.002    -233.820
  O      267.427     429.494    -233.087
  C      268.558     427.453    -233.844
  N      269.897     426.905    -233.610
  C      270.155     426.465    -232.315
  O      269.332     426.516    -231.403
  N      271.420     425.987    -232.094
  C      272.440     425.945    -233.003
  O      273.566     425.549    -232.723
  C      272.110     426.449    -234.344
  C      270.871     426.895    -234.592
  O      268.333     428.951    -240.120
  O      270.519     427.660    -239.581
  H      267.611     429.317    -232.139
  H      270.933     426.958    -239.049
  H      271.630     425.676    -231.161
  H      272.891     426.421    -235.096
  H      270.610     427.272    -235.574
  H      267.887     427.060    -233.066
  H      269.446     429.453    -233.381
  H      269.416     429.161    -235.760
  H      266.475     428.355    -235.419
  H      266.880     427.143    -237.524
  H      266.980     428.891    -237.780
  P      269.143     431.743    -236.142
  C      269.455     432.999    -233.895
  O      270.046     432.183    -234.890
  O      268.625     432.822    -237.028
  O      270.167     430.829    -236.987
  H      270.547     431.358    -237.704
  H      270.218     433.223    -233.147
  H      268.636     432.460    -233.397
  H      269.089     433.926    -234.325
  H      268.529     424.326    -239.827
  H      269.075     425.123    -238.372
  H      270.046     425.193    -239.823

 3  4  5  6  7  8  9  10  11  12  13  23  28  29  30  31  32 0
 6-311+G(2d,p)
 ****
 33  34 0
 6-311+G(2d,p)
 ****
 1  2  14  15  16  17  18  19  20  21  22  24  25  26  27 0
 3-21G
 ****
 35  36  37  38  39  40  41  42  43  44  45 0
 3-21G
 ****


