%nproc=1
%NoSave
%Mem=1900MB
#P OB98/GEN NMR

erre ene a

0 1
  C     1417.664      49.381      46.322
  O     1418.758      49.776      45.508
  H     1416.872      48.984      45.672
  H     1417.276      50.246      46.866
  H     1417.980      48.600      47.012
  P     1420.018      50.421      46.269
  C     1419.764      52.061      48.246
  O     1419.442      51.778      46.903
  C     1419.093      53.352      48.709
  O     1417.669      53.282      48.494
  C     1419.289      53.687      50.182
  O     1420.533      54.332      50.385
  C     1418.117      54.635      50.430
  O     1418.468      55.953      49.961
  C     1417.012      54.042      49.533
  N     1412.643      53.844      52.228
  C     1413.413      54.886      51.853
  N     1414.593      54.870      51.186
  C     1414.950      53.601      50.895
  C     1414.262      52.443      51.209
  C     1413.059      52.585      51.904
  N     1412.275      51.521      52.291
  N     1414.949      51.317      50.775
  C     1415.992      51.801      50.133
  N     1416.059      53.184      50.207
  O     1421.263      50.545      45.456
  O     1420.126      49.464      47.545
  H     1419.093      56.323      50.632
  H     1419.242      49.258      47.898
  H     1413.032      55.875      52.105
  H     1416.711      51.214      49.578
  H     1416.429      54.826      49.035
  H     1417.867      54.726      51.486
  H     1419.169      52.799      50.822
  H     1419.475      54.175      48.070
  H     1420.856      52.152      48.376
  H     1411.522      51.714      52.938
  H     1412.655      50.584      52.178
  H     1419.418      51.221      48.857
  P     1421.370      54.118      51.744
  C     1420.879      54.486      54.240
  O     1420.400      54.641      52.909
  O     1422.740      54.706      51.726
  O     1421.367      52.520      51.954
  H     1422.064      52.291      52.605
  H     1420.153      54.867      54.927
  H     1421.796      55.025      54.354
  H     1421.048      53.449      54.440

 6  7  8  9  10  11  12  13  14  15  25  28  32  33  34  35 0
 6-311+G(2d,p)
 ****
 36  39  40 0
 6-311+G(2d,p)
 ****
 1  2  3  4  5  16  17  18  19  20  21  22  23  24 0
 3-21G
 ****
 26  27  29  30  31  37  38  41  42  43  44  45  46  47 0
 3-21G
 ****
 48 0
 3-21G
 ****


