%nproc=1
%NoSave
%Mem=1900MB
#P OB98/GEN NMR

erre ene a

0 1
  C     -514.230     123.866     117.877
  O     -512.993     123.318     117.473
  P     -511.732     123.354     118.459
  C     -509.432     122.216     118.575
  O     -510.769     122.127     118.091
  C     -508.739     120.859     118.478
  O     -509.346     119.906     119.382
  C     -508.828     120.214     117.105
  O     -507.988     120.852     116.162
  C     -508.455     118.775     117.435
  O     -507.028     118.632     117.538
  C     -509.112     118.593     118.819
  N     -510.341     117.818     118.749
  C     -510.232     116.463     119.079
  O     -509.131     115.967     119.325
  N     -511.375     115.703     119.110
  C     -512.501     116.216     118.725
  N     -513.610     115.435     118.834
  C     -512.627     117.600     118.215
  C     -511.523     118.340     118.278
  O     -512.065     123.480     119.909
  O     -510.891     124.626     117.964
  H     -510.681     125.186     118.735
  H     -506.682     118.634     116.623
  H     -513.575     117.957     117.843
  H     -511.524     119.373     117.945
  H     -508.420     118.093     119.506
  H     -508.795     118.069     116.672
  H     -509.867     120.248     116.749
  H     -507.688     120.993     118.771
  H     -513.489     114.501     119.206
  H     -509.456     122.544     119.619
  H     -514.549     115.823     118.878
  H     -508.888     122.968     117.992
  P     -508.448     120.797     114.626
  C     -507.938     122.177     112.495
  O     -507.873     122.105     113.905
  O     -510.028     121.067     114.706
  O     -508.153     119.508     113.932
  H     -510.485     120.536     114.025
  H     -507.844     123.224     112.191
  H     -508.886     121.784     112.119
  H     -507.108     121.613     112.063
  H     -514.946     123.749     117.090
  H     -514.105     124.906     118.094
  H     -514.576     123.358     118.753

 3  4  5  6  7  8  9  10  11  12  13  24  27  28  29  30  32 0
 6-311+G(2d,p)
 ****
 34  35 0
 6-311+G(2d,p)
 ****
 1  2  14  15  16  17  18  19  20  21  22  23  25  26 0
 3-21G
 ****
 31  33  36  37  38  39  40  41  42  43  44  45  46 0
 3-21G
 ****


