%nproc=1
%NoSave
%Mem=1900MB
#P OB98/GEN NMR

erre ene a

0 1
  C      -57.625      95.851      98.604
  O      -58.125      94.535      98.349
  P      -59.380      94.042      99.222
  C      -59.616      93.042     101.633
  O      -58.776      93.630     100.648
  C      -58.769      92.466     102.765
  O      -58.051      91.291     102.318
  C      -57.704      93.416     103.292
  O      -58.272      94.437     104.097
  C      -56.794      92.446     104.034
  O      -57.336      92.141     105.328
  C      -56.855      91.196     103.130
  N      -55.664      91.027     102.307
  C      -54.538      90.540     102.964
  O      -54.518      90.287     104.168
  N      -53.421      90.373     102.191
  C      -53.316      90.667     100.862
  O      -52.290      90.486     100.218
  C      -54.524      91.224     100.234
  C      -55.625      91.377     100.973
  O      -59.719      92.649      98.514
  O      -60.496      95.030      99.246
  H      -58.927      92.181      98.198
  H      -58.267      91.879     105.183
  H      -52.598      90.009     102.646
  H      -54.468      91.493      99.187
  H      -56.527      91.789     100.528
  H      -56.974      90.293     103.742
  H      -55.787      92.849     104.188
  H      -57.159      93.867     102.453
  H      -59.445      92.169     103.578
  H      -60.211      92.242     101.185
  H      -60.310      93.803     102.004
  P      -58.187      95.939     103.529
  C      -56.323      97.770     103.498
  O      -56.693      96.445     103.805
  O      -59.071      96.726     104.608
  O      -58.666      96.076     102.121
  H      -58.877      96.465     105.522
  H      -55.418      98.021     104.060
  H      -57.109      98.479     103.766
  H      -56.107      97.851     102.430
  H      -56.795      96.049      97.958
  H      -57.308      95.921      99.623
  H      -58.398      96.568      98.421

 3  4  5  6  7  8  9  10  11  12  13  24  28  29  30  31  32 0
 6-311+G(2d,p)
 ****
 33  34 0
 6-311+G(2d,p)
 ****
 1  2  14  15  16  17  18  19  20  21  22  23  25  26  27 0
 3-21G
 ****
 35  36  37  38  39  40  41  42  43  44  45 0
 3-21G
 ****


