%nproc=1
%NoSave
%Mem=1900MB
#P OB98/GEN NMR

erre ene a

0 1
  C      -44.176     175.823    -349.098
  O      -44.373     175.407    -350.457
  P      -44.588     176.542    -351.569
  C      -42.462     175.924    -352.937
  O      -43.874     176.068    -352.926
  C      -42.002     175.259    -354.238
  O      -42.159     173.828    -354.194
  C      -42.781     175.714    -355.465
  O      -42.291     176.949    -355.965
  C      -42.474     174.590    -356.441
  O      -41.169     174.789    -357.022
  C      -42.465     173.359    -355.529
  N      -44.941     169.138    -357.055
  C      -43.679     169.579    -357.282
  N      -43.101     170.724    -356.856
  C      -43.956     171.440    -356.108
  C      -45.267     171.121    -355.791
  C      -45.760     169.909    -356.301
  N      -47.043     169.464    -356.065
  N      -45.836     172.106    -355.013
  C      -44.880     173.000    -354.848
  N      -43.728     172.642    -355.499
  O      -43.649     177.731    -351.056
  O      -46.006     176.986    -351.711
  H      -41.158     174.303    -357.867
  H      -44.055     178.593    -351.275
  H      -43.057     168.930    -357.888
  H      -44.973     173.907    -354.269
  H      -41.689     172.635    -355.811
  H      -43.186     174.546    -357.269
  H      -43.857     175.748    -355.255
  H      -40.936     175.483    -354.377
  H      -42.139     175.328    -352.078
  H      -47.318     168.571    -356.436
  H      -47.651     170.019    -355.482
  H      -42.002     176.911    -352.817
  P      -43.129     177.647    -357.144
  C      -43.643     179.743    -355.699
  O      -43.039     179.223    -356.864
  O      -44.644     177.271    -356.778
  O      -42.754     177.199    -358.515
  H      -45.176     177.208    -357.597
  H      -43.240     180.740    -355.510
  H      -43.436     179.111    -354.831
  H      -44.725     179.822    -355.844
  H      -44.048     174.962    -348.476
  H      -45.029     176.377    -348.767
  H      -43.304     176.440    -349.037

 3  4  5  6  7  8  9  10  11  12  22  25  29  30  31  32 0
 6-311+G(2d,p)
 ****
 33  36  37 0
 6-311+G(2d,p)
 ****
 1  2  13  14  15  16  17  18  19  20  21  23  24  26 0
 3-21G
 ****
 27  28  34  35  38  39  40  41  42  43  44  45  46  47  48 0
 3-21G
 ****


