%nproc=1
%NoSave
%Mem=1900MB
#P OB98/GEN NMR

erre ene a

0 1
  C     -267.645     327.242     129.647
  O     -267.259     325.919     129.934
  P     -268.222     324.842     130.612
  C     -267.964     323.380     128.459
  O     -268.828     323.906     129.459
  C     -268.545     322.096     127.850
  O     -267.592     321.558     126.901
  C     -268.770     321.011     128.923
  O     -269.986     320.291     128.778
  C     -267.476     320.210     128.865
  O     -267.586     318.911     129.422
  C     -267.130     320.279     127.385
  N     -263.229     317.080     126.774
  C     -264.576     316.798     126.858
  N     -264.904     315.493     126.972
  N     -265.506     317.716     126.862
  C     -265.022     318.981     126.852
  C     -263.706     319.380     126.775
  C     -262.690     318.359     126.738
  O     -261.477     318.563     126.781
  N     -263.584     320.745     126.864
  C     -264.822     321.170     127.028
  N     -265.724     320.131     127.066
  O     -269.147     325.339     131.669
  O     -267.155     323.853     131.317
  H     -267.550     319.002     130.396
  H     -267.568     323.526     132.143
  H     -262.552     316.328     126.859
  H     -265.117     322.203     127.158
  H     -267.648     319.500     126.817
  H     -266.731     320.747     129.466
  H     -264.207     314.776     127.121
  H     -268.864     321.465     129.912
  H     -265.848     315.281     127.281
  H     -269.463     322.336     127.302
  H     -267.013     323.164     128.952
  H     -267.778     324.124     127.682
  P     -270.698     319.310     129.815
  C     -272.170     321.255     130.613
  O     -271.327     320.189     131.000
  O     -269.502     318.538     130.542
  O     -271.648     318.334     129.200
  H     -269.755     317.603     130.677
  H     -272.303     321.926     131.472
  H     -273.146     320.860     130.318
  H     -271.734     321.818     129.786
  H     -266.826     327.763     129.196
  H     -267.926     327.736     130.553
  H     -268.476     327.233     128.973

 3  4  5  6  7  8  9  10  11  12  23  26  30  31 0
 6-311+G(2d,p)
 ****
 33  35  36  37  38 0
 6-311+G(2d,p)
 ****
 1  2  13  14  15  16  17  18  19  20  21  22  24  25 0
 3-21G
 ****
 27  28  29  32  34  39  40  41  42  43  44  45  46  47  48  49 0
 3-21G
 ****


