%nproc=1
%NoSave
%Mem=1900MB
#P OB98/GEN NMR

erre ene a

0 1
  C     -738.431    -222.609    -236.353
  O     -739.708    -221.952    -236.332
  P     -739.923    -220.733    -237.358
  C     -741.436    -222.155    -238.954
  O     -740.240    -221.411    -238.782
  C     -741.351    -222.990    -240.238
  O     -740.226    -223.901    -240.180
  C     -742.569    -223.864    -240.490
  O     -743.678    -223.101    -240.949
  C     -742.009    -224.845    -241.519
  O     -742.005    -224.247    -242.820
  C     -740.556    -225.032    -241.015
  N     -740.352    -226.289    -240.321
  C     -740.163    -227.416    -241.131
  O     -740.193    -227.363    -242.362
  N     -739.963    -228.591    -240.477
  C     -739.959    -228.774    -239.123
  O     -739.765    -229.859    -238.588
  C     -740.216    -227.566    -238.320
  C     -740.388    -226.398    -238.949
  O     -738.429    -220.181    -237.505
  O     -740.926    -219.737    -236.873
  H     -737.762    -220.881    -237.471
  H     -741.707    -224.942    -243.442
  H     -739.812    -229.412    -241.045
  H     -740.248    -227.670    -237.238
  H     -740.587    -225.502    -238.367
  H     -739.863    -225.000    -241.869
  H     -742.588    -225.765    -241.575
  H     -742.845    -224.407    -239.574
  H     -741.196    -222.300    -241.077
  H     -742.288    -221.482    -239.027
  H     -741.598    -222.794    -238.078
  P     -744.612    -222.440    -239.814
  C     -743.928    -219.979    -240.392
  O     -743.960    -221.033    -239.446
  O     -744.262    -223.362    -238.552
  O     -746.056    -222.406    -240.175
  H     -743.321    -223.544    -238.451
  H     -743.780    -219.032    -239.879
  H     -744.877    -219.931    -240.953
  H     -743.102    -220.129    -241.093
  H     -738.422    -223.395    -235.627
  H     -737.662    -221.902    -236.122
  H     -738.257    -223.020    -237.326

 3  4  5  6  7  8  9  10  11  12  13  24  28  29  30  31  32 0
 6-311+G(2d,p)
 ****
 33  34 0
 6-311+G(2d,p)
 ****
 1  2  14  15  16  17  18  19  20  21  22  23  25  26  27 0
 3-21G
 ****
 35  36  37  38  39  40  41  42  43  44  45 0
 3-21G
 ****


