%nproc=1
%NoSave
%Mem=1900MB
#P OB98/GEN NMR

erre ene a

0 1
  C       95.929    -104.129      42.076
  O       95.660    -105.285      42.844
  H       95.534    -104.276      41.068
  H       97.009    -103.968      42.011
  H       95.448    -103.253      42.522
  P       96.004    -105.214      44.406
  C       97.977    -106.944      44.310
  O       97.553    -105.612      44.571
  C       99.463    -107.090      44.633
  O      100.265    -106.227      43.802
  C       99.830    -106.675      46.046
  O       99.373    -107.586      47.021
  C      101.345    -106.605      45.928
  O      101.931    -107.913      45.993
  C      101.512    -105.999      44.512
  N      101.863    -104.587      44.546
  C      103.187    -104.298      44.905
  O      103.975    -105.209      45.157
  N      103.570    -102.984      44.996
  C      102.721    -102.042      44.730
  N      103.161    -100.761      44.848
  C      101.327    -102.303      44.324
  C      100.969    -103.584      44.258
  O       95.246    -106.495      44.990
  O       95.653    -103.927      45.078
  H      101.503    -108.440      45.290
  H       95.471    -107.322      44.534
  H      100.655    -101.486      44.101
  H       99.964    -103.862      43.969
  H      102.294    -106.532      43.956
  H      101.793    -106.015      46.731
  H       99.461    -105.661      46.251
  H       99.754    -108.129      44.430
  H      104.118    -100.620      45.150
  H       97.778    -107.221      43.270
  H      102.582     -99.949      44.699
  H       97.386    -107.610      44.948
  P       98.874    -107.066      48.453
  C      101.071    -107.733      49.618
  O      100.197    -106.663      49.270
  O       97.955    -107.989      49.178
  O       98.233    -105.635      48.123
  H       98.850    -104.996      47.725
  H      101.911    -107.347      50.156
  H      101.410    -108.220      48.728
  H      100.547    -108.436      50.232

 6  7  8  9  10  11  12  13  14  15  16  26  30  31  32  33  35 0
 6-311+G(2d,p)
 ****
 37  38 0
 6-311+G(2d,p)
 ****
 1  2  3  4  5  17  18  19  20  21  22  23  24  25 0
 3-21G
 ****
 27  28  29  34  36  39  40  41  42  43  44  45  46 0
 3-21G
 ****


