%nproc=1
%NoSave
%Mem=1900MB
#P OB98/GEN NMR

erre ene a

0 1
  C       78.613     -69.163    -196.141
  O       79.366     -69.524    -195.001
  H       79.164     -69.462    -197.037
  H       78.459     -68.081    -196.168
  H       77.646     -69.674    -196.132
  P       78.768     -69.071    -193.580
  C       77.893     -71.476    -193.066
  O       78.785     -70.427    -192.718
  C       78.239     -72.732    -192.273
  O       79.372     -73.408    -192.860
  C       78.632     -72.463    -190.824
  O       77.515     -72.231    -189.981
  C       79.334     -73.767    -190.487
  O       78.355     -74.800    -190.272
  C       80.135     -74.019    -191.784
  N       81.491     -73.470    -191.740
  C       82.477     -74.278    -191.161
  O       82.193     -75.387    -190.711
  N       83.762     -73.797    -191.077
  C       84.042     -72.617    -191.539
  N       85.326     -72.185    -191.416
  C       83.038     -71.740    -192.169
  C       81.800     -72.222    -192.234
  O       77.208     -68.866    -193.875
  O       79.431     -67.903    -192.932
  H       77.643     -74.654    -190.921
  H       76.726     -68.706    -193.029
  H       83.317     -70.760    -192.528
  H       81.008     -71.632    -192.684
  H       80.200     -75.092    -192.002
  H       79.940     -73.704    -189.581
  H       79.357     -71.645    -190.747
  H       77.384     -73.416    -192.333
  H       85.977     -72.782    -190.923
  H       77.989     -71.667    -194.140
  H       85.597     -71.222    -191.578
  H       76.862     -71.180    -192.847
  P       77.446     -70.825    -189.207
  C       74.919     -70.266    -189.415
  O       75.975     -70.710    -188.577
  O       77.419     -69.758    -190.398
  O       78.572     -70.574    -188.254
  H       77.950     -68.969    -190.176
  H       74.007     -70.242    -188.857
  H       74.813     -70.937    -190.242
  H       75.141     -69.284    -189.779

 6  7  8  9  10  11  12  13  14  15  16  26  30  31  32  33  35 0
 6-311+G(2d,p)
 ****
 37  38 0
 6-311+G(2d,p)
 ****
 1  2  3  4  5  17  18  19  20  21  22  23  24  25 0
 3-21G
 ****
 27  28  29  34  36  39  40  41  42  43  44  45  46 0
 3-21G
 ****


