%nproc=1
%NoSave
%Mem=1900MB
#P OB98/GEN NMR

erre ene a

0 1
  C     -200.665     -41.256     270.629
  O     -200.059     -41.076     271.892
  P     -199.100     -42.207     272.508
  C     -197.025     -40.944     273.372
  O     -197.604     -41.668     272.287
  C     -195.534     -40.708     273.131
  O     -195.330     -39.947     271.923
  C     -194.841     -39.921     274.238
  O     -194.591     -40.752     275.356
  C     -193.589     -39.439     273.515
  O     -192.575     -40.454     273.496
  C     -194.123     -39.174     272.087
  N     -194.347     -37.754     271.835
  C     -193.281     -37.064     271.243
  O     -192.222     -37.643     270.998
  N     -193.424     -35.721     270.991
  C     -194.525     -35.121     271.326
  N     -194.605     -33.786     271.058
  C     -195.663     -35.803     271.974
  C     -195.502     -37.107     272.202
  O     -199.360     -43.594     272.022
  O     -199.312     -42.035     274.087
  H     -191.757     -40.016     273.191
  H     -200.189     -42.394     274.375
  H     -196.551     -35.257     272.243
  H     -196.284     -37.687     272.678
  H     -193.412     -39.546     271.339
  H     -193.154     -38.557     273.996
  H     -195.459     -39.061     274.521
  H     -195.052     -41.687     272.999
  H     -193.797     -33.348     270.637
  H     -197.155     -41.531     274.285
  H     -195.398     -33.217     271.306
  H     -197.555     -39.991     273.494
  P     -195.380     -40.502     276.723
  C     -195.963     -42.980     277.045
  O     -196.465     -41.667     276.889
  O     -195.898     -39.114     276.921
  O     -194.294     -40.862     277.848
  H     -194.320     -40.180     278.549
  H     -196.748     -43.609     277.472
  H     -195.094     -42.993     277.711
  H     -195.676     -43.381     276.067
  H     -201.262     -40.400     270.395
  H     -201.285     -42.128     270.652
  H     -199.907     -41.377     269.884

 3  4  5  6  7  8  9  10  11  12  13  23  27  28  29  30  32 0
 6-311+G(2d,p)
 ****
 34  35 0
 6-311+G(2d,p)
 ****
 1  2  14  15  16  17  18  19  20  21  22  24  25  26 0
 3-21G
 ****
 31  33  36  37  38  39  40  41  42  43  44  45  46 0
 3-21G
 ****


