%nproc=1
%NoSave
%Mem=1900MB
#P OB98/GEN NMR

erre ene a

0 1
  C      146.981     -93.531     -76.830
  O      148.175     -93.502     -76.073
  H      147.219     -93.279     -77.867
  H      146.265     -92.799     -76.449
  H      146.540     -94.531     -76.807
  P      148.084     -93.760     -74.495
  C      147.955     -91.314     -73.662
  O      147.254     -92.533     -73.884
  C      147.358     -90.559     -72.477
  O      145.990     -90.196     -72.751
  C      147.322     -91.362     -71.181
  O      148.611     -91.443     -70.609
  C      146.301     -90.564     -70.387
  O      146.893     -89.378     -69.833
  C      145.278     -90.199     -71.492
  N      144.134     -91.102     -71.545
  C      143.112     -90.858     -70.620
  O      143.216     -89.936     -69.812
  N      142.013     -91.681     -70.627
  C      141.917     -92.630     -71.504
  N      140.801     -93.406     -71.460
  C      142.955     -92.899     -72.517
  C      144.028     -92.114     -72.474
  O      149.378     -94.040     -73.796
  O      147.065     -94.987     -74.364
  H      147.516     -89.684     -69.144
  H      147.551     -95.832     -74.325
  H      142.829     -93.696     -73.236
  H      144.839     -92.244     -73.186
  H      144.900     -89.180     -71.340
  H      145.887     -91.133     -69.556
  H      146.911     -92.361     -71.366
  H      147.927     -89.629     -72.347
  H      140.107     -93.170     -70.758
  H      147.859     -90.717     -74.575
  H      140.547     -94.060     -72.185
  H      149.020     -91.506     -73.488
  P      149.092     -92.741     -69.800
  C      148.660     -91.731     -67.475
  O      148.275     -92.720     -68.417
  O      150.568     -92.889     -69.655
  O      148.403     -93.952     -70.588
  H      148.898     -94.145     -71.423
  H      148.050     -91.815     -66.600
  H      148.534     -90.760     -67.906
  H      149.687     -91.873     -67.208

 6  7  8  9  10  11  12  13  14  15  16  26  30  31  32  33  35 0
 6-311+G(2d,p)
 ****
 37  38 0
 6-311+G(2d,p)
 ****
 1  2  3  4  5  17  18  19  20  21  22  23  24  25 0
 3-21G
 ****
 27  28  29  34  36  39  40  41  42  43  44  45  46 0
 3-21G
 ****


