%nproc=1
%NoSave
%Mem=1900MB
#P OB98/GEN NMR

erre ene a

0 1
  C      178.931     672.892     521.782
  O      180.195     673.418     522.110
  P      181.446     672.472     522.451
  C      182.759     673.253     520.379
  O      182.155     672.155     521.028
  C      184.277     673.075     520.266
  O      184.578     671.725     519.784
  C      184.987     674.065     519.328
  O      186.281     674.302     519.912
  C      185.117     673.272     518.050
  O      186.103     673.799     517.171
  C      185.402     671.869     518.591
  N      185.126     670.827     517.623
  C      186.241     670.221     517.018
  O      187.381     670.628     517.293
  N      186.040     669.202     516.111
  C      184.835     668.908     515.749
  N      184.700     667.887     514.843
  C      183.638     669.607     516.264
  C      183.857     670.520     517.197
  O      181.120     671.261     523.264
  O      182.499     673.464     523.144
  H      186.979     673.785     517.645
  H      182.228     673.638     524.082
  H      182.658     669.354     515.880
  H      183.033     671.087     517.616
  H      186.445     671.788     518.917
  H      184.153     673.280     517.506
  H      184.434     675.006     519.202
  H      184.702     673.129     521.285
  H      185.546     667.431     514.536
  H      182.564     674.156     520.969
  H      183.799     667.520     514.569
  H      182.313     673.401     519.392
  P      187.058     675.681     519.649
  C      186.077     677.064     521.557
  O      186.115     676.868     520.157
  O      187.595     675.855     518.243
  O      188.250     675.680     520.723
  H      188.919     676.343     520.462
  H      185.634     678.049     521.778
  H      187.075     677.021     521.988
  H      185.445     676.280     522.012
  H      178.249     673.694     521.593
  H      178.569     672.300     522.597
  H      179.015     672.281     520.907

 3  4  5  6  7  8  9  10  11  12  13  23  27  28  29  30  32 0
 6-311+G(2d,p)
 ****
 34  35 0
 6-311+G(2d,p)
 ****
 1  2  14  15  16  17  18  19  20  21  22  24  25  26 0
 3-21G
 ****
 31  33  36  37  38  39  40  41  42  43  44  45  46 0
 3-21G
 ****


