%nproc=1
%NoSave
%Mem=1900MB
#P OB98/GEN NMR

erre ene a

0 1
  C     -238.683      12.540     272.778
  O     -238.128      13.811     273.142
  P     -236.714      14.318     272.576
  C     -237.551      16.755     272.560
  O     -236.523      15.862     272.974
  C     -237.403      18.132     273.214
  O     -237.786      18.082     274.602
  C     -235.987      18.698     273.184
  O     -235.689      19.235     271.911
  C     -236.051      19.718     274.318
  O     -236.663      20.938     273.861
  C     -236.959      19.008     275.332
  N     -235.455      19.205     280.215
  C     -236.219      20.034     279.473
  N     -236.573      19.919     278.174
  C     -236.067      18.787     277.648
  C     -235.269      17.846     278.285
  C     -234.959      18.090     279.632
  N     -234.168      17.250     280.383
  N     -234.923      16.834     277.415
  C     -235.520      17.147     276.282
  N     -236.223      18.317     276.370
  O     -236.495      14.030     271.126
  O     -235.624      13.565     273.475
  H     -237.461      20.691     273.359
  H     -234.802      13.449     272.963
  H     -236.599      20.914     279.989
  H     -235.475      16.560     275.372
  H     -237.640      19.715     275.825
  H     -235.064      19.973     274.712
  H     -235.268      17.912     273.444
  H     -238.099      18.817     272.710
  H     -238.518      16.319     272.839
  H     -233.963      17.511     281.334
  H     -233.756      16.441     279.940
  H     -237.509      16.856     271.469
  P     -234.288      18.909     271.209
  C     -234.936      19.654     268.843
  O     -234.129      19.919     269.977
  O     -234.046      17.472     270.887
  O     -233.203      19.460     272.256
  H     -232.387      18.933     272.178
  H     -234.481      18.859     268.249
  H     -234.995      20.563     268.235
  H     -235.944      19.360     269.141
  H     -239.625      12.409     273.268
  H     -238.014      11.760     273.076
  H     -238.824      12.503     271.718

 3  4  5  6  7  8  9  10  11  12  22  25  29  30  31  32 0
 6-311+G(2d,p)
 ****
 33  36  37 0
 6-311+G(2d,p)
 ****
 1  2  13  14  15  16  17  18  19  20  21  23  24  26 0
 3-21G
 ****
 27  28  34  35  38  39  40  41  42  43  44  45  46  47  48 0
 3-21G
 ****


