%nproc=1
%NoSave
%Mem=1900MB
#P OB98/GEN NMR

erre ene a

0 1
  C      318.004      50.520     131.788
  O      319.327      50.833     131.389
  P      319.599      51.145     129.842
  C      319.986      48.658     129.213
  O      320.523      49.972     129.255
  C      320.921      47.710     128.458
  O      320.398      46.359     128.518
  C      321.089      48.067     126.975
  O      322.421      47.737     126.555
  C      320.145      47.113     126.275
  O      320.524      46.906     124.914
  C      320.273      45.877     127.163
  N      318.596      41.620     125.018
  C      319.888      42.090     125.141
  N      320.853      41.363     124.533
  N      320.206      43.165     125.805
  C      319.138      43.795     126.356
  C      317.814      43.417     126.315
  C      317.472      42.231     125.566
  O      316.346      41.777     125.395
  N      317.025      44.288     127.021
  C      317.860      45.214     127.454
  N      319.145      44.978     127.045
  O      320.584      52.407     129.901
  O      318.374      51.458     129.047
  H      321.491      46.763     124.909
  H      320.100      53.217     129.657
  H      318.397      40.787     124.485
  H      317.580      46.082     128.039
  H      321.181      45.310     126.931
  H      319.124      47.516     126.289
  H      320.661      40.560     123.951
  H      320.879      49.115     126.735
  H      321.801      41.711     124.571
  H      321.893      47.701     128.966
  H      319.020      48.683     128.706
  H      319.829      48.293     130.234
  P      323.309      48.962     126.010
  C      321.898      48.772     123.831
  O      323.178      48.919     124.415
  O      324.809      48.475     126.283
  O      323.009      50.270     126.657
  H      325.402      49.244     126.374
  H      321.673      49.666     123.244
  H      321.113      48.631     124.580
  H      321.912      47.905     123.165
  H      317.983      50.338     132.842
  H      317.672      49.646     131.268
  H      317.358      51.340     131.555

 3  4  5  6  7  8  9  10  11  12  23  26  30  31 0
 6-311+G(2d,p)
 ****
 33  35  36  37  38 0
 6-311+G(2d,p)
 ****
 1  2  13  14  15  16  17  18  19  20  21  22  24  25 0
 3-21G
 ****
 27  28  29  32  34  39  40  41  42  43  44  45  46  47  48  49 0
 3-21G
 ****


