%nproc=1
%NoSave
%Mem=1900MB
#P OB98/GEN NMR

erre ene a

0 1
  C     -110.298     181.741    -607.409
  O     -110.281     183.068    -606.891
  P     -108.944     183.622    -606.216
  C     -108.395     185.100    -608.265
  O     -107.930     184.061    -607.388
  C     -107.596     185.088    -609.576
  O     -107.805     183.863    -610.317
  C     -107.993     186.199    -610.529
  O     -107.483     187.451    -610.082
  C     -107.432     185.701    -611.839
  O     -106.022     185.994    -611.952
  C     -107.639     184.167    -611.714
  N     -108.744     183.672    -612.513
  C     -108.499     183.533    -613.888
  O     -107.422     183.883    -614.361
  N     -109.511     183.041    -614.690
  C     -110.656     182.721    -614.169
  N     -111.607     182.229    -614.996
  C     -110.945     182.845    -612.722
  C     -109.957     183.315    -611.955
  O     -108.337     182.750    -605.160
  O     -109.407     185.039    -605.610
  H     -105.727     185.598    -612.785
  H     -108.870     185.225    -604.812
  H     -111.917     182.535    -612.335
  H     -110.084     183.449    -610.900
  H     -106.722     183.625    -612.040
  H     -107.919     186.140    -612.703
  H     -109.096     186.250    -610.604
  H     -106.519     185.173    -609.324
  H     -111.381     182.154    -615.988
  H     -108.274     186.072    -607.772
  H     -112.506     181.885    -614.676
  H     -109.465     184.961    -608.448
  P     -108.501     188.458    -609.360
  C     -107.335     188.110    -607.068
  O     -108.541     188.084    -607.802
  O     -109.945     187.989    -609.902
  O     -108.273     189.910    -609.667
  H     -110.527     188.742    -610.002
  H     -107.578     188.137    -606.005
  H     -106.734     188.981    -607.327
  H     -106.764     187.194    -607.261
  H     -111.262     181.532    -607.822
  H     -110.090     181.048    -606.621
  H     -109.555     181.647    -608.173

 3  4  5  6  7  8  9  10  11  12  13  23  27  28  29  30  32 0
 6-311+G(2d,p)
 ****
 34  35 0
 6-311+G(2d,p)
 ****
 1  2  14  15  16  17  18  19  20  21  22  24  25  26 0
 3-21G
 ****
 31  33  36  37  38  39  40  41  42  43  44  45  46 0
 3-21G
 ****


