%nproc=1
%NoSave
%Mem=1900MB
#P OB98/GEN NMR

erre ene a

0 1
  C       24.977    -140.416    -192.669
  O       24.239    -140.044    -191.514
  P       25.001    -139.991    -190.104
  C       25.921    -141.821    -188.460
  O       25.209    -141.514    -189.644
  C       25.695    -143.289    -188.073
  O       24.294    -143.472    -187.720
  C       26.028    -144.299    -189.179
  O       26.556    -145.469    -188.538
  C       24.669    -144.597    -189.786
  O       24.634    -145.835    -190.476
  C       23.779    -144.548    -188.533
  N       22.362    -144.333    -188.834
  C       21.787    -145.105    -189.837
  O       22.408    -145.938    -190.505
  N       20.461    -144.866    -190.089
  C       19.688    -143.911    -189.488
  O       18.507    -143.734    -189.761
  C       20.359    -143.095    -188.465
  C       21.639    -143.347    -188.184
  O       23.839    -139.448    -189.148
  O       26.242    -139.164    -190.121
  H       22.959    -139.784    -189.388
  H       23.791    -145.887    -190.963
  H       20.013    -145.439    -190.791
  H       19.783    -142.320    -187.982
  H       22.161    -142.759    -187.436
  H       23.897    -145.474    -187.955
  H       24.402    -143.800    -190.496
  H       26.748    -143.909    -189.900
  H       26.284    -143.499    -187.169
  H       25.570    -141.178    -187.647
  H       26.984    -141.620    -188.615
  P       27.058    -146.683    -189.472
  C       25.904    -148.749    -190.594
  O       25.768    -147.529    -189.901
  O       27.755    -147.621    -188.371
  O       27.998    -146.285    -190.569
  H       27.197    -147.759    -187.591
  H       24.972    -149.323    -190.489
  H       26.727    -149.350    -190.197
  H       26.074    -148.548    -191.659
  H       24.333    -140.404    -193.523
  H       25.375    -141.400    -192.536
  H       25.779    -139.724    -192.818

 3  4  5  6  7  8  9  10  11  12  13  24  28  29  30  31  32 0
 6-311+G(2d,p)
 ****
 33  34 0
 6-311+G(2d,p)
 ****
 1  2  14  15  16  17  18  19  20  21  22  23  25  26  27 0
 3-21G
 ****
 35  36  37  38  39  40  41  42  43  44  45 0
 3-21G
 ****


