%nproc=1
%NoSave
%Mem=1900MB
#P OB98/GEN NMR

erre ene a

0 1
  C      522.106     900.166      87.655
  O      521.352     899.676      86.538
  P      520.837     900.703      85.414
  C      519.007     898.998      84.709
  O      520.049     899.878      84.276
  C      518.798     897.878      83.664
  O      518.244     898.419      82.434
  C      520.100     897.213      83.255
  O      520.731     896.390      84.224
  C      519.714     896.552      81.945
  O      519.073     895.296      82.145
  C      518.728     897.585      81.356
  N      519.317     898.393      80.278
  C      519.729     897.703      79.147
  O      519.664     896.487      79.040
  N      520.270     898.477      78.142
  C      520.456     899.823      78.186
  O      520.952     900.463      77.263
  C      520.012     900.498      79.415
  C      519.474     899.763      80.396
  O      521.848     901.672      84.912
  O      519.640     901.467      86.172
  H      518.197     895.474      82.561
  H      519.688     902.409      85.921
  H      520.568     897.990      77.306
  H      520.154     901.574      79.481
  H      519.150     900.224      81.311
  H      517.845     897.081      80.934
  H      520.599     896.354      81.316
  H      520.829     897.992      83.004
  H      518.076     897.160      84.072
  H      518.085     899.556      84.848
  H      519.279     898.573      85.684
  P      522.329     896.259      84.339
  C      522.029     893.950      85.505
  O      522.658     895.228      85.526
  O      523.123     897.520      84.283
  O      522.666     895.378      83.040
  H      523.546     895.638      82.699
  H      522.362     893.393      86.389
  H      522.329     893.408      84.604
  H      520.951     894.059      85.545
  H      522.363     899.350      88.297
  H      521.518     900.876      88.199
  H      522.999     900.638      87.303

 3  4  5  6  7  8  9  10  11  12  13  23  28  29  30  31  32 0
 6-311+G(2d,p)
 ****
 33  34 0
 6-311+G(2d,p)
 ****
 1  2  14  15  16  17  18  19  20  21  22  24  25  26  27 0
 3-21G
 ****
 35  36  37  38  39  40  41  42  43  44  45 0
 3-21G
 ****


