%nproc=1
%NoSave
%Mem=1900MB
#P OB98/GEN NMR

erre ene a

0 1
  C     -324.281     475.285     782.229
  O     -323.035     475.276     781.560
  H     -324.413     474.323     782.728
  H     -325.089     475.422     781.505
  H     -324.306     476.084     782.974
  P     -322.555     476.655     780.899
  C     -320.249     477.593     780.064
  O     -320.950     476.616     780.826
  C     -318.873     477.840     780.688
  O     -318.988     478.310     782.044
  C     -318.014     476.597     780.806
  O     -317.534     476.140     779.561
  C     -316.919     477.103     781.739
  O     -315.954     477.889     781.022
  C     -317.738     477.991     782.715
  N     -317.962     477.343     784.000
  C     -316.994     477.592     784.985
  O     -316.035     478.326     784.743
  N     -317.124     476.982     786.205
  C     -318.136     476.208     786.437
  N     -318.210     475.622     787.661
  C     -319.194     475.934     785.439
  C     -319.045     476.526     784.253
  O     -322.828     477.717     782.064
  O     -323.195     476.988     779.589
  H     -315.454     477.262     780.462
  H     -322.420     477.478     782.912
  H     -320.033     475.292     785.675
  H     -319.770     476.380     783.461
  H     -317.220     478.939     782.892
  H     -316.380     476.280     782.213
  H     -318.565     475.805     781.334
  H     -318.368     478.626     780.101
  H     -317.456     475.814     788.315
  H     -320.818     478.525     780.007
  H     -318.936     474.976     787.949
  H     -320.138     477.211     779.049
  P     -317.047     474.623     779.378
  C     -316.674     473.108     777.329
  O     -317.400     474.212     777.871
  O     -317.542     473.670     780.418
  O     -315.452     474.755     779.331
  H     -315.115     475.310     778.601
  H     -316.995     472.929     776.324
  H     -316.856     472.236     777.922
  H     -315.628     473.332     777.335

 6  7  8  9  10  11  12  13  14  15  16  26  30  31  32  33  35 0
 6-311+G(2d,p)
 ****
 37  38 0
 6-311+G(2d,p)
 ****
 1  2  3  4  5  17  18  19  20  21  22  23  24  25 0
 3-21G
 ****
 27  28  29  34  36  39  40  41  42  43  44  45  46 0
 3-21G
 ****


