%nproc=1
%NoSave
%Mem=1900MB
#P OB98/GEN NMR

erre ene a

0 1
  C     -311.884      84.779    -358.985
  O     -313.084      84.353    -359.607
  P     -313.273      84.623    -361.174
  C     -312.443      82.292    -361.996
  O     -312.216      83.695    -361.957
  C     -312.437      81.783    -363.439
  O     -311.128      82.042    -364.031
  C     -312.712      80.282    -363.573
  O     -313.434      80.082    -364.804
  C     -311.314      79.700    -363.706
  O     -311.299      78.400    -364.283
  C     -310.650      80.784    -364.561
  N     -309.193      80.708    -364.548
  C     -308.571      80.008    -365.575
  O     -309.184      79.449    -366.492
  N     -307.209      79.901    -365.501
  C     -306.431      80.342    -364.472
  O     -305.222      80.108    -364.405
  C     -307.133      81.071    -363.406
  C     -308.460      81.222    -363.487
  O     -312.695      86.104    -361.365
  O     -314.682      84.501    -361.660
  H     -311.532      77.767    -363.586
  H     -313.421      86.752    -361.406
  H     -306.748      79.406    -366.247
  H     -306.535      81.453    -362.583
  H     -309.007      81.745    -362.708
  H     -311.004      80.719    -365.600
  H     -310.856      79.633    -362.714
  H     -313.275      79.857    -362.733
  H     -313.172      82.361    -364.011
  H     -313.412      82.072    -361.538
  H     -311.671      81.778    -361.404
  P     -314.141      78.659    -365.033
  C     -316.450      79.807    -364.608
  O     -315.578      78.733    -364.333
  O     -313.276      77.730    -364.056
  O     -314.119      78.202    -366.464
  H     -313.102      78.151    -363.198
  H     -316.362      80.157    -365.641
  H     -316.228      80.636    -363.931
  H     -317.483      79.486    -364.434
  H     -311.912      84.527    -357.945
  H     -311.783      85.839    -359.093
  H     -311.051      84.293    -359.447

 3  4  5  6  7  8  9  10  11  12  13  23  28  29  30  31  32 0
 6-311+G(2d,p)
 ****
 33  34 0
 6-311+G(2d,p)
 ****
 1  2  14  15  16  17  18  19  20  21  22  24  25  26 0
 3-21G
 ****
 27  35  36  37  38  39  40  41  42  43  44  45 0
 3-21G
 ****


