%nproc=1
%NoSave
%Mem=1900MB
#P OB98/GEN NMR

erre ene a

0 1
  C     -275.626      15.176     -73.443
  O     -275.239      13.937     -72.844
  P     -273.938      13.960     -71.905
  C     -275.208      15.153     -69.979
  O     -274.094      15.169     -70.864
  C     -274.823      14.462     -68.667
  O     -273.860      15.238     -67.920
  C     -276.003      14.266     -67.723
  O     -276.833      13.204     -68.160
  C     -275.274      13.999     -66.410
  O     -274.811      12.640     -66.353
  C     -274.068      14.951     -66.514
  N     -273.759      17.227     -61.939
  C     -273.501      15.961     -62.340
  N     -273.611      15.433     -63.575
  C     -274.025      16.361     -64.453
  C     -274.321      17.690     -64.196
  C     -274.179      18.119     -62.864
  N     -274.454      19.405     -62.457
  N     -274.718      18.334     -65.349
  C     -274.684      17.404     -66.284
  N     -274.261      16.199     -65.793
  O     -272.781      14.459     -72.894
  O     -273.612      12.637     -71.297
  H     -274.347      12.524     -65.498
  H     -272.178      13.721     -73.099
  H     -273.163      15.281     -61.562
  H     -274.954      17.555     -67.320
  H     -273.148      14.496     -66.134
  H     -275.902      14.167     -65.530
  H     -276.590      15.191     -67.646
  H     -274.375      13.491     -68.912
  H     -276.049      14.630     -70.438
  H     -274.401      19.611     -61.471
  H     -274.854      20.055     -63.120
  H     -275.532      16.181     -69.800
  P     -278.388      13.266     -67.777
  C     -279.177      14.248     -70.017
  O     -278.943      14.501     -68.645
  O     -278.332      13.876     -66.303
  O     -279.130      11.985     -67.932
  H     -277.720      14.630     -66.243
  H     -279.581      15.155     -70.478
  H     -279.899      13.437     -70.136
  H     -278.237      13.989     -70.514
  H     -276.501      15.026     -74.040
  H     -274.831      15.537     -74.061
  H     -275.836      15.893     -72.677

 3  4  5  6  7  8  9  10  11  12  22  25  29  30  31  32 0
 6-311+G(2d,p)
 ****
 33  36  37 0
 6-311+G(2d,p)
 ****
 1  2  13  14  15  16  17  18  19  20  21  23  24  26 0
 3-21G
 ****
 27  28  34  35  38  39  40  41  42  43  44  45  46  47  48 0
 3-21G
 ****


