%nproc=1
%NoSave
%Mem=1900MB
#P OB98/GEN NMR

erre ene a

0 1
  C      266.370     113.577    -604.548
  O      267.569     113.607    -605.317
  P      267.462     113.515    -606.912
  C      266.910     110.931    -607.004
  O      266.566     112.258    -607.324
  C      265.701     110.014    -607.280
  O      265.102     110.350    -608.547
  C      266.066     108.537    -607.333
  O      266.056     107.932    -606.052
  C      265.006     107.983    -608.268
  O      263.756     107.824    -607.569
  C      264.900     109.123    -609.310
  N      265.839     109.119    -610.450
  C      265.476     108.500    -611.644
  O      264.403     107.938    -611.831
  N      266.396     108.553    -612.655
  C      267.549     109.286    -612.658
  O      268.307     109.346    -613.620
  C      267.814     110.042    -611.432
  C      266.976     109.912    -610.400
  O      268.936     113.097    -607.365
  O      267.010     114.777    -607.574
  H      263.085     107.559    -608.230
  H      269.345     113.807    -607.897
  H      266.180     108.049    -613.500
  H      268.688     110.674    -611.409
  H      267.164     110.468    -609.484
  H      263.887     109.165    -609.733
  H      265.279     106.997    -608.633
  H      267.037     108.407    -607.814
  H      264.952     110.185    -606.496
  H      267.202     110.846    -605.952
  H      267.767     110.611    -607.601
  P      267.438     107.594    -605.321
  C      267.998     105.779    -607.042
  O      268.401     107.008    -606.463
  O      267.340     106.771    -604.075
  O      268.083     109.042    -605.042
  H      267.880     109.335    -604.122
  H      268.637     105.566    -607.903
  H      266.958     105.831    -607.379
  H      268.108     104.970    -606.310
  H      266.611     113.647    -603.508
  H      265.851     112.660    -604.732
  H      265.747     114.401    -604.826

 3  4  5  6  7  8  9  10  11  12  13  23  28  29  30  31  32 0
 6-311+G(2d,p)
 ****
 33  34 0
 6-311+G(2d,p)
 ****
 1  2  14  15  16  17  18  19  20  21  22  24  25  26  27 0
 3-21G
 ****
 35  36  37  38  39  40  41  42  43  44  45 0
 3-21G
 ****


