%nproc=1
%NoSave
%Mem=1900MB
#P OB98/GEN NMR

erre ene a

0 1
  C     -116.029     123.130     554.260
  O     -115.231     122.010     553.963
  H     -116.551     122.946     555.210
  H     -116.774     123.301     553.482
  H     -115.402     124.025     554.384
  P     -114.407     122.001     552.584
  C     -112.460     123.477     553.430
  O     -113.566     123.362     552.533
  C     -111.180     123.770     552.645
  O     -111.330     125.080     552.018
  C     -109.937     123.813     553.552
  O     -108.882     122.964     553.097
  C     -109.629     125.307     553.668
  O     -108.279     125.621     553.929
  C     -110.167     125.880     552.347
  N     -110.528     127.292     552.405
  C     -109.594     128.207     551.911
  O     -108.515     127.907     551.403
  N     -109.963     129.514     552.011
  C     -111.128     130.009     552.541
  O     -111.397     131.200     552.583
  C     -112.049     128.995     553.068
  C     -111.722     127.710     552.978
  O     -115.204     121.708     551.357
  O     -113.272     120.892     552.823
  H     -107.956     124.962     554.588
  H     -113.520     120.063     552.358
  H     -109.302     130.191     551.627
  H     -112.976     129.350     553.508
  H     -112.376     126.930     553.364
  H     -109.439     125.743     551.541
  H     -110.232     125.713     554.496
  H     -110.162     123.422     554.547
  H     -111.069     123.026     551.846
  H     -112.368     122.528     553.966
  H     -112.649     124.284     554.146
  P     -108.208     121.797     553.962
  C     -109.778     119.852     553.149
  O     -109.317     120.668     554.221
  O     -107.412     122.248     555.145
  O     -107.206     121.096     552.927
  H     -106.431     120.782     553.454
  H     -110.511     119.163     553.515
  H     -108.954     119.310     552.734
  H     -110.215     120.470     552.393

 6  7  8  9  10  11  12  13  14  15  16  26  31  32  33  34  35 0
 6-311+G(2d,p)
 ****
 36  37 0
 6-311+G(2d,p)
 ****
 1  2  3  4  5  17  18  19  20  21  22  23  24  25 0
 3-21G
 ****
 27  28  29  30  38  39  40  41  42  43  44  45 0
 3-21G
 ****


