%nproc=1
%NoSave
%Mem=1900MB
#P OB98/GEN NMR

erre ene a

0 1
  C      362.242      -2.247     -88.115
  O      362.888      -3.360     -87.534
  H      362.685      -2.053     -89.095
  H      362.374      -1.360     -87.488
  H      361.177      -2.456     -88.244
  P      362.458      -3.752     -86.041
  C      362.782      -2.536     -83.766
  O      363.317      -2.831     -85.051
  C      363.617      -1.445     -83.104
  O      363.852      -0.370     -84.045
  C      362.947      -0.791     -81.904
  O      363.043      -1.579     -80.728
  C      363.736       0.501     -81.800
  O      364.954       0.322     -81.064
  C      364.023       0.838     -83.276
  N      363.170       1.922     -83.757
  C      363.632       3.211     -83.501
  O      364.686       3.447     -82.911
  N      362.815       4.228     -83.914
  C      361.592       4.087     -84.496
  O      360.885       5.041     -84.792
  C      361.149       2.702     -84.730
  C      361.944       1.698     -84.351
  O      363.089      -5.210     -85.849
  O      360.986      -3.741     -85.787
  H      362.383      -5.881     -85.880
  H      365.480       1.133     -81.213
  H      363.133       5.170     -83.740
  H      360.179       2.552     -85.187
  H      361.634       0.668     -84.498
  H      365.069       1.145     -83.402
  H      363.161       1.268     -81.291
  H      361.902      -0.554     -82.137
  H      364.589      -1.872     -82.820
  H      362.811      -3.434     -83.142
  H      361.741      -2.221     -83.879
  P      362.218      -1.096     -79.438
  C      362.227       1.207     -78.165
  O      362.930       0.252     -78.946
  O      362.665      -2.204     -78.373
  O      360.750      -1.004     -79.679
  H      363.545      -2.566     -78.577
  H      362.873       2.030     -77.941
  H      361.900       0.751     -77.254
  H      361.378       1.560     -78.712

 6  7  8  9  10  11  12  13  14  15  16  27  31  32  33  34  35 0
 6-311+G(2d,p)
 ****
 36  37 0
 6-311+G(2d,p)
 ****
 1  2  3  4  5  17  18  19  20  21  22  23  24  25 0
 3-21G
 ****
 26  28  29  30  38  39  40  41  42  43  44  45 0
 3-21G
 ****


