%nproc=1
%NoSave
%Mem=1900MB
#P OB98/GEN NMR

erre ene a

0 1
  C     -899.592    -952.661    -223.141
  O     -899.458    -952.901    -224.525
  P     -899.441    -954.395    -225.099
  C     -901.780    -954.039    -226.137
  O     -900.998    -954.813    -225.244
  C     -902.211    -954.897    -227.354
  O     -903.052    -955.983    -226.917
  C     -903.017    -954.127    -228.368
  O     -902.180    -953.305    -229.174
  C     -903.677    -955.275    -229.150
  O     -902.792    -955.830    -230.115
  C     -903.950    -956.299    -228.012
  N     -905.343    -956.292    -227.564
  C     -906.164    -957.273    -228.134
  O     -905.710    -958.057    -228.973
  N     -907.490    -957.319    -227.786
  C     -907.954    -956.445    -226.931
  N     -909.276    -956.534    -226.631
  C     -907.135    -955.364    -226.340
  C     -905.848    -955.354    -226.698
  O     -898.598    -955.358    -224.337
  O     -898.998    -954.210    -226.623
  H     -903.275    -956.575    -230.525
  H     -898.023    -954.010    -226.692
  H     -907.571    -954.649    -225.652
  H     -905.178    -954.597    -226.307
  H     -903.687    -957.306    -228.322
  H     -904.584    -954.960    -229.657
  H     -903.781    -953.517    -227.881
  H     -901.298    -955.302    -227.796
  H     -909.816    -957.262    -227.087
  H     -901.174    -953.184    -226.494
  H     -909.743    -955.876    -226.015
  H     -902.655    -953.633    -225.618
  P     -902.305    -951.722    -229.109
  C     -899.774    -951.467    -228.673
  O     -901.091    -951.168    -228.232
  O     -903.639    -951.196    -228.747
  O     -901.896    -951.228    -230.590
  H     -902.529    -950.556    -230.896
  H     -899.075    -950.802    -228.191
  H     -899.697    -951.364    -229.757
  H     -899.521    -952.509    -228.387
  H     -899.581    -951.607    -222.959
  H     -898.779    -953.121    -222.619
  H     -900.517    -953.073    -222.795

 3  4  5  6  7  8  9  10  11  12  13  23  27  28  29  30  32 0
 6-311+G(2d,p)
 ****
 34  35 0
 6-311+G(2d,p)
 ****
 1  2  14  15  16  17  18  19  20  21  22  24  25  26 0
 3-21G
 ****
 31  33  36  37  38  39  40  41  42  43  44  45  46 0
 3-21G
 ****


