%nproc=1
%NoSave
%Mem=1900MB
#P OB98/GEN NMR

erre ene a

0 1
  C      -59.160     -11.278     647.484
  O      -57.917     -10.641     647.199
  P      -56.587     -11.533     647.165
  C      -56.661     -11.728     644.526
  O      -55.936     -11.479     645.709
  C      -55.677     -11.920     643.363
  O      -56.397     -12.229     642.145
  C      -54.830     -10.684     643.075
  O      -53.663     -10.646     643.877
  C      -54.542     -10.835     641.595
  O      -53.502     -11.808     641.385
  C      -55.897     -11.374     641.078
  N      -56.947     -10.393     640.728
  C      -56.851      -9.666     639.543
  O      -55.924      -9.771     638.745
  N      -57.875      -8.794     639.286
  C      -59.045      -8.695     639.980
  O      -59.956      -7.940     639.670
  C      -59.163      -9.594     641.136
  C      -58.129     -10.375     641.457
  O      -57.132     -13.031     647.282
  O      -55.601     -11.210     648.240
  H      -52.715     -11.499     641.868
  H      -56.830     -13.437     648.116
  H      -57.784      -8.204     638.474
  H      -60.096      -9.583     641.685
  H      -58.209     -11.043     642.312
  H      -55.749     -12.007     640.195
  H      -54.180      -9.905     641.165
  H      -55.424      -9.776     643.210
  H      -55.028     -12.773     643.594
  H      -57.342     -10.904     644.306
  H      -57.277     -12.624     644.654
  P      -53.372      -9.367     644.798
  C      -53.691     -10.385     647.130
  O      -52.755      -9.951     646.162
  O      -54.498      -8.401     644.956
  O      -52.091      -8.692     644.106
  H      -52.367      -7.965     643.498
  H      -53.156     -10.901     647.933
  H      -54.413     -11.079     646.684
  H      -54.218      -9.524     647.553
  H      -59.945     -10.551     647.470
  H      -59.114     -11.734     648.451
  H      -59.354     -12.027     646.745

 3  4  5  6  7  8  9  10  11  12  13  23  28  29  30  31  32 0
 6-311+G(2d,p)
 ****
 33  34 0
 6-311+G(2d,p)
 ****
 1  2  14  15  16  17  18  19  20  21  22  24  25  26  27 0
 3-21G
 ****
 35  36  37  38  39  40  41  42  43  44  45 0
 3-21G
 ****


