%nproc=1
%NoSave
%Mem=1900MB
#P OB98/GEN NMR

erre ene a

0 1
  C       52.483      -4.686     220.176
  O       51.157      -5.130     220.388
  H       52.860      -5.141     219.256
  H       53.123      -4.988     221.009
  H       52.500      -3.599     220.065
  P       50.428      -4.602     221.716
  C       49.080      -2.690     220.631
  O       50.196      -3.035     221.445
  C       47.868      -2.349     221.498
  O       48.253      -1.315     222.441
  C       46.671      -1.829     220.697
  O       45.467      -2.336     221.270
  C       46.737      -0.324     220.896
  O       45.464       0.299     220.743
  C       47.326      -0.222     222.302
  N       46.738       4.569     223.960
  C       45.927       3.491     224.003
  N       46.168       2.242     223.551
  C       47.415       2.150     223.054
  C       48.355       3.162     222.939
  C       47.974       4.429     223.419
  N       48.787       5.535     223.356
  N       49.504       2.686     222.332
  C       49.266       1.410     222.097
  N       48.009       1.045     222.499
  O       51.106      -4.935     223.002
  O       48.955      -5.203     221.539
  H       45.595       1.269     220.730
  H       48.629      -5.089     220.627
  H       44.949       3.654     224.453
  H       49.956       0.717     221.628
  H       46.564      -0.308     223.087
  H       47.419       0.115     220.158
  H       46.723      -2.103     219.642
  H       47.599      -3.232     222.089
  H       48.830      -3.522     219.962
  H       48.438       6.403     223.737
  H       49.715       5.446     222.972
  H       49.364      -1.828     220.019
  P       45.040      -3.846     220.941
  C       45.497      -4.804     223.294
  O       45.855      -4.829     221.916
  O       45.040      -4.227     219.497
  O       43.555      -3.926     221.546
  H       43.004      -4.479     220.961
  H       46.108      -5.497     223.834
  H       44.468      -5.077     223.400
  H       45.647      -3.819     223.684

 6  7  8  9  10  11  12  13  14  15  25  28  32  33  34  35 0
 6-311+G(2d,p)
 ****
 36  39  40 0
 6-311+G(2d,p)
 ****
 1  2  3  4  5  16  17  18  19  20  21  22  23  24 0
 3-21G
 ****
 26  27  29  30  31  37  38  41  42  43  44  45  46  47 0
 3-21G
 ****
 48 0
 3-21G
 ****


