%nproc=1
%NoSave
%Mem=1900MB
#P OB98/GEN NMR

erre ene a

0 1
  C       31.105     150.928    -412.134
  O       32.187     151.129    -411.245
  P       33.617     150.464    -411.544
  C       34.733     152.347    -410.176
  O       34.565     150.938    -410.336
  C       35.478     152.660    -408.879
  O       34.578     152.627    -407.755
  C       36.593     151.678    -408.550
  O       37.735     151.933    -409.344
  C       36.785     151.939    -407.062
  O       37.625     153.082    -406.837
  C       35.339     152.226    -406.595
  N       34.736     151.085    -405.922
  C       35.176     150.844    -404.613
  O       36.045     151.553    -404.110
  N       34.653     149.774    -403.929
  C       33.788     148.999    -404.509
  N       33.317     147.947    -403.785
  C       33.326     149.200    -405.897
  C       33.833     150.250    -406.536
  O       34.156     150.696    -412.913
  O       33.370     148.915    -411.212
  H       38.527     152.815    -407.098
  H       32.838     148.475    -411.921
  H       32.610     148.520    -406.341
  H       33.552     150.471    -407.559
  H       35.322     153.079    -405.904
  H       37.253     151.094    -406.551
  H       36.237     150.654    -408.697
  H       35.885     153.678    -408.960
  H       33.687     147.829    -402.847
  H       33.742     152.809    -410.144
  H       32.672     147.268    -404.149
  H       35.272     152.747    -411.042
  P       38.694     150.724    -409.777
  C       39.081     151.568    -412.170
  O       39.677     151.263    -410.919
  O       38.004     149.435    -410.079
  O       39.671     150.557    -408.512
  H       39.766     149.605    -408.311
  H       39.760     152.216    -412.732
  H       38.124     152.076    -412.034
  H       38.927     150.640    -412.732
  H       30.243     151.446    -411.769
  H       30.890     149.882    -412.204
  H       31.364     151.304    -413.102

 3  4  5  6  7  8  9  10  11  12  13  23  27  28  29  30  32 0
 6-311+G(2d,p)
 ****
 34  35 0
 6-311+G(2d,p)
 ****
 1  2  14  15  16  17  18  19  20  21  22  24  25  26 0
 3-21G
 ****
 31  33  36  37  38  39  40  41  42  43  44  45  46 0
 3-21G
 ****


