%nproc=1
%NoSave
%Mem=1900MB
#P OB98/GEN NMR

erre ene a

0 1
  C      479.294     301.514     575.832
  O      479.531     302.691     575.085
  H      480.030     301.460     576.642
  H      479.402     300.631     575.197
  H      478.291     301.542     576.268
  P      478.574     302.942     573.820
  C      476.578     303.702     575.265
  O      477.562     304.089     574.310
  C      475.280     304.471     575.028
  O      474.245     303.896     575.867
  C      475.378     305.959     575.374
  O      474.620     306.715     574.428
  C      474.724     306.057     576.741
  O      474.199     307.351     577.002
  C      473.670     304.948     576.658
  N      470.238     305.311     580.415
  C      470.266     305.821     579.169
  N      471.217     305.661     578.219
  C      472.191     304.841     578.661
  C      472.300     304.253     579.906
  C      471.266     304.521     580.819
  N      471.239     304.030     582.096
  N      473.467     303.520     579.993
  C      474.046     303.648     578.812
  N      473.314     304.457     577.981
  O      477.931     301.723     573.245
  O      479.548     303.737     572.831
  H      473.617     307.296     577.791
  H      480.060     304.422     573.303
  H      469.419     306.443     578.891
  H      474.985     303.201     578.523
  H      472.747     305.287     576.177
  H      475.464     305.827     577.519
  H      476.409     306.315     575.388
  H      474.960     304.319     573.991
  H      476.942     303.897     576.278
  H      470.452     304.256     582.685
  H      471.983     303.416     582.415
  H      476.411     302.623     575.154
  P      475.274     308.042     573.812
  C      476.125     306.860     571.675
  O      475.312     307.901     572.212
  O      476.546     308.498     574.445
  O      474.111     309.128     574.026
  H      474.522     309.987     574.258
  H      476.063     306.874     570.607
  H      475.781     305.915     572.040
  H      477.141     307.010     571.975

 6  7  8  9  10  11  12  13  14  15  25  28  32  33  34  35 0
 6-311+G(2d,p)
 ****
 36  39  40 0
 6-311+G(2d,p)
 ****
 1  2  3  4  5  16  17  18  19  20  21  22  23  24 0
 3-21G
 ****
 26  27  29  30  31  37  38  41  42  43  44  45  46  47 0
 3-21G
 ****
 48 0
 3-21G
 ****


