%nproc=1
%NoSave
%Mem=1900MB
#P OB98/GEN NMR

erre ene a

0 1
  C      -44.072    -896.770    -171.878
  O      -43.159    -896.910    -170.805
  H      -43.878    -895.820    -172.381
  H      -45.099    -896.760    -171.504
  H      -43.941    -897.580    -172.602
  P      -43.121    -898.290    -170.000
  C      -45.454    -898.070    -168.934
  O      -44.050    -898.110    -168.707
  C      -46.194    -898.080    -167.595
  O      -45.897    -899.280    -166.859
  C      -45.793    -896.930    -166.675
  O      -46.367    -895.690    -167.092
  C      -46.293    -897.450    -165.336
  O      -47.700    -897.210    -165.179
  C      -46.009    -898.960    -165.456
  N      -44.799    -899.350    -164.726
  C      -44.904    -899.370    -163.339
  O      -45.929    -899.100    -162.727
  N      -43.747    -899.670    -162.666
  C      -42.502    -899.800    -163.224
  O      -41.467    -899.810    -162.567
  C      -42.471    -899.820    -164.701
  C      -43.600    -899.590    -165.366
  O      -41.753    -898.840    -169.729
  O      -43.975    -899.280    -170.919
  H      -43.364    -899.860    -171.419
  H      -47.969    -897.720    -164.390
  H      -43.799    -899.650    -161.658
  H      -41.517    -900.000    -165.181
  H      -43.597    -899.570    -166.450
  H      -46.858    -899.540    -165.070
  H      -45.778    -896.970    -164.502
  H      -44.707    -896.840    -166.640
  H      -47.275    -898.060    -167.799
  H      -45.739    -898.970    -169.502
  H      -45.703    -897.180    -169.520
  P      -45.434    -894.430    -167.399
  C      -45.281    -893.610    -164.962
  O      -45.733    -893.310    -166.282
  O      -45.465    -893.940    -168.798
  O      -43.957    -894.940    -167.000
  H      -43.353    -894.730    -167.746
  H      -45.531    -892.802    -164.307
  H      -44.220    -893.746    -164.971
  H      -45.753    -894.507    -164.619

 6  7  8  9  10  11  12  13  14  15  16  27  31  32  33  34  35 0
 6-311+G(2d,p)
 ****
 36  37 0
 6-311+G(2d,p)
 ****
 1  2  3  4  5  17  18  19  20  21  22  23  24  25 0
 3-21G
 ****
 26  28  29  30  38  39  40  41  42  43  44  45 0
 3-21G
 ****


