%nproc=1
%NoSave
%Mem=1900MB
#P OB98/GEN NMR

erre ene a

0 1
  C     -708.236    -474.075      51.612
  O     -707.601    -474.775      52.674
  P     -707.127    -476.293      52.385
  C     -708.296    -478.608      52.501
  O     -708.443    -477.194      52.474
  C     -709.103    -479.204      53.652
  O     -710.501    -478.875      53.519
  C     -709.053    -480.730      53.721
  O     -707.875    -481.200      54.349
  C     -710.276    -481.015      54.589
  O     -709.949    -480.814      55.978
  C     -711.269    -479.959      54.098
  N     -715.945    -481.791      53.402
  C     -715.388    -481.174      54.509
  N     -716.177    -481.091      55.608
  N     -714.171    -480.671      54.545
  C     -713.499    -480.859      53.379
  C     -713.942    -481.431      52.208
  C     -715.280    -481.984      52.196
  O     -715.802    -482.584      51.264
  N     -712.967    -481.416      51.243
  C     -711.945    -480.796      51.810
  N     -712.210    -480.476      53.118
  O     -706.322    -476.675      53.719
  O     -706.298    -476.466      51.156
  H     -710.727    -481.110      56.490
  H     -705.771    -477.458      53.554
  H     -716.871    -482.145      53.436
  H     -711.002    -480.598      51.327
  H     -711.856    -479.530      54.928
  H     -710.621    -482.051      54.490
  H     -717.095    -481.498      55.668
  H     -709.196    -481.171      52.726
  H     -715.780    -480.691      56.457
  H     -708.739    -478.771      54.590
  H     -707.241    -478.853      52.630
  H     -708.635    -479.021      51.546
  P     -707.476    -482.731      54.071
  C     -708.880    -484.913      54.131
  O     -708.706    -483.600      54.612
  O     -706.300    -483.000      55.130
  O     -707.037    -483.007      52.668
  H     -705.714    -483.706      54.827
  H     -709.581    -485.445      54.785
  H     -707.927    -485.456      54.130
  H     -709.284    -484.901      53.114
  H     -708.495    -473.090      51.939
  H     -709.122    -474.598      51.320
  H     -707.569    -474.010      50.778

 3  4  5  6  7  8  9  10  11  12  23  26  30  31 0
 6-311+G(2d,p)
 ****
 33  35  36  37  38 0
 6-311+G(2d,p)
 ****
 1  2  13  14  15  16  17  18  19  20  21  22  24  25 0
 3-21G
 ****
 27  28  29  32  34  39  40  41  42  43  44  45  46  47  48  49 0
 3-21G
 ****


