%nproc=1
%NoSave
%Mem=1900MB
#P OB98/GEN NMR

erre ene a

0 1
  C      259.463     140.673    -174.066
  O      259.235     141.951    -174.661
  P      260.455     142.989    -174.754
  C      261.745     142.412    -176.911
  O      260.769     143.254    -176.306
  C      262.768     143.240    -177.686
  O      263.969     142.489    -177.955
  C      262.267     143.699    -179.045
  O      261.331     144.756    -178.911
  C      263.571     144.067    -179.738
  O      263.998     145.386    -179.364
  C      264.548     143.014    -179.172
  N      264.861     141.951    -180.116
  C      265.710     142.300    -181.171
  O      266.118     143.455    -181.287
  N      266.064     141.329    -182.077
  C      265.602     140.125    -181.946
  N      265.988     139.203    -182.870
  C      264.695     139.720    -180.854
  C      264.364     140.675    -179.987
  O      261.644     142.665    -173.911
  O      259.778     144.373    -174.298
  H      263.289     145.994    -179.661
  H      260.459     144.928    -173.869
  H      264.344     138.701    -180.782
  H      263.699     140.466    -179.157
  H      265.494     143.491    -178.880
  H      263.469     144.057    -180.827
  H      261.795     142.855    -179.569
  H      263.036     144.114    -177.074
  H      266.602     139.509    -183.617
  H      261.251     141.704    -177.582
  H      265.724     138.229    -182.826
  H      262.228     141.819    -176.128
  P      260.043     144.736    -179.862
  C      258.085     145.259    -178.245
  O      258.963     145.741    -179.244
  O      259.408     143.290    -179.576
  O      260.334     144.917    -181.318
  H      258.996     142.947    -180.391
  H      257.649     146.115    -177.721
  H      258.611     144.633    -177.520
  H      257.281     144.684    -178.710
  H      258.556     140.105    -174.082
  H      259.785     140.803    -173.054
  H      260.219     140.153    -174.617

 3  4  5  6  7  8  9  10  11  12  13  23  27  28  29  30  32 0
 6-311+G(2d,p)
 ****
 34  35 0
 6-311+G(2d,p)
 ****
 1  2  14  15  16  17  18  19  20  21  22  24  25  26 0
 3-21G
 ****
 31  33  36  37  38  39  40  41  42  43  44  45  46 0
 3-21G
 ****


