%nproc=1
%NoSave
%Mem=1900MB
#P OB98/GEN NMR

erre ene a

0 1
  C     -475.348    -232.753      88.265
  O     -476.696    -232.550      88.634
  H     -475.085    -232.023      87.495
  H     -475.225    -233.758      87.852
  H     -474.681    -232.621      89.118
  P     -477.247    -233.265      89.959
  C     -477.146    -231.151      91.442
  O     -476.648    -232.461      91.213
  C     -476.884    -230.714      92.890
  O     -475.453    -230.704      93.121
  C     -477.388    -229.286      93.145
  O     -477.744    -229.081      94.508
  C     -476.169    -228.437      92.818
  O     -476.196    -227.156      93.445
  C     -475.034    -229.337      93.300
  N     -470.436    -227.138      93.396
  C     -471.510    -226.956      94.249
  N     -471.331    -226.072      95.260
  N     -472.657    -227.566      94.105
  C     -472.717    -228.360      93.012
  C     -471.730    -228.602      92.083
  C     -470.450    -227.949      92.270
  O     -469.476    -228.060      91.532
  N     -472.163    -229.462      91.105
  C     -473.411    -229.737      91.440
  N     -473.784    -229.112      92.601
  O     -476.434    -234.645      90.012
  O     -478.728    -233.495      89.999
  H     -476.074    -227.298      94.404
  H     -476.912    -235.298      90.551
  H     -469.569    -226.665      93.567
  H     -474.074    -230.388      90.881
  H     -474.846    -229.184      94.370
  H     -476.149    -228.269      91.736
  H     -470.540    -225.448      95.285
  H     -478.230    -229.019      92.511
  H     -472.182    -225.700      95.689
  H     -477.315    -231.443      93.585
  H     -478.221    -231.181      91.239
  H     -476.703    -230.447      90.736
  P     -479.210    -228.525      94.840
  C     -480.390    -230.851      95.297
  O     -480.300    -229.657      94.552
  O     -479.473    -227.442      93.696
  O     -479.352    -227.937      96.212
  H     -479.551    -226.550      94.082
  H     -481.194    -231.448      94.919
  H     -480.573    -230.617      96.325
  H     -479.472    -231.394      95.213

 6  7  8  9  10  11  12  13  14  15  26  29  33  34 0
 6-311+G(2d,p)
 ****
 36  38  39  40  41 0
 6-311+G(2d,p)
 ****
 1  2  3  4  5  16  17  18  19  20  21  22  23  24  25 0
 3-21G
 ****
 27  28  30  31  32  35  37  42  43  44  45  46  47 0
 3-21G
 ****
 48  49 0
 3-21G
 ****


