%nproc=1
%NoSave
%Mem=1900MB
#P OB98/GEN NMR

erre ene a

0 1
  C     -339.616    -892.370     896.150
  O     -340.421    -891.900     895.088
  H     -340.217    -892.370     897.068
  H     -338.759    -891.720     896.303
  H     -339.280    -893.400     895.954
  P     -339.758    -891.730     893.642
  C     -340.583    -894.160     893.380
  O     -339.580    -893.210     893.041
  C     -340.627    -895.280     892.330
  O     -341.268    -894.750     891.144
  C     -339.223    -895.770     891.941
  O     -339.073    -897.180     892.049
  C     -339.002    -895.150     890.561
  O     -338.104    -895.860     889.734
  C     -340.428    -895.030     890.005
  N     -340.578    -893.980     888.988
  C     -341.071    -894.370     887.755
  O     -341.426    -895.510     887.451
  N     -341.183    -893.370     886.812
  C     -340.848    -892.060     887.003
  O     -340.970    -891.210     886.127
  C     -340.307    -891.720     888.329
  C     -340.195    -892.680     889.243
  O     -338.530    -890.880     893.585
  O     -340.942    -891.120     892.744
  H     -338.456    -896.770     889.629
  H     -340.794    -890.160     892.618
  H     -341.550    -893.640     885.914
  H     -340.018    -890.700     888.502
  H     -339.788    -892.470     890.232
  H     -340.747    -895.970     889.568
  H     -338.584    -894.140     890.710
  H     -338.463    -895.390     892.630
  H     -341.252    -896.100     892.706
  H     -341.547    -893.640     893.413
  H     -340.365    -894.580     894.364
  P     -338.148    -897.920     893.122
  C     -340.050    -897.850     894.930
  O     -338.694    -897.570     894.583
  O     -336.677    -897.790     892.901
  O     -338.544    -899.490     892.937
  H     -337.716    -900.000     893.128
  H     -340.229    -897.549     895.941
  H     -340.234    -898.900     894.833
  H     -340.704    -897.311     894.276

 6  7  8  9  10  11  12  13  14  15  16  26  31  32  33  34  35 0
 6-311+G(2d,p)
 ****
 36  37 0
 6-311+G(2d,p)
 ****
 1  2  3  4  5  17  18  19  20  21  22  23  24  25 0
 3-21G
 ****
 27  28  29  30  38  39  40  41  42  43  44  45 0
 3-21G
 ****


