%nproc=1
%NoSave
%Mem=1900MB
#P OB98/GEN NMR

erre ene a

0 1
  C      -19.848     225.606    -270.729
  O      -19.034     226.525    -271.431
  H      -20.536     226.166    -270.090
  H      -19.231     224.963    -270.099
  H      -20.433     224.997    -271.424
  P      -18.074     225.977    -272.591
  C      -18.605     227.653    -274.478
  O      -17.668     227.240    -273.491
  C      -18.300     229.082    -274.920
  O      -18.616     230.009    -273.860
  C      -16.833     229.327    -275.259
  O      -16.505     228.780    -276.524
  C      -16.776     230.845    -275.184
  O      -17.289     231.439    -276.386
  C      -17.710     231.131    -273.983
  N      -16.991     231.359    -272.733
  C      -16.558     232.661    -272.495
  O      -16.727     233.581    -273.297
  N      -15.908     232.867    -271.308
  C      -15.579     231.907    -270.394
  O      -14.946     232.138    -269.371
  C      -16.030     230.545    -270.715
  C      -16.704     230.338    -271.850
  O      -18.584     224.799    -273.355
  O      -16.712     225.634    -271.820
  H      -18.198     231.098    -276.498
  H      -16.660     224.676    -271.657
  H      -15.575     233.803    -271.125
  H      -15.782     229.754    -270.018
  H      -17.038     229.337    -272.103
  H      -18.331     232.012    -274.186
  H      -15.760     231.222    -275.057
  H      -16.189     228.912    -274.476
  H      -18.941     229.320    -275.777
  H      -19.610     227.612    -274.049
  H      -18.551     226.964    -275.328
  P      -15.120     228.017    -276.752
  C      -16.004     225.919    -277.921
  O      -15.271     227.126    -278.080
  O      -14.593     227.280    -275.565
  O      -14.112     229.174    -277.205
  H      -13.500     229.384    -276.475
  H      -16.047     225.402    -278.857
  H      -16.997     226.145    -277.593
  H      -15.520     225.301    -277.194

 6  7  8  9  10  11  12  13  14  15  16  26  31  32  33  34  35 0
 6-311+G(2d,p)
 ****
 36  37 0
 6-311+G(2d,p)
 ****
 1  2  3  4  5  17  18  19  20  21  22  23  24  25 0
 3-21G
 ****
 27  28  29  30  38  39  40  41  42  43  44  45 0
 3-21G
 ****


