%nproc=1
%NoSave
%Mem=1900MB
#P OB98/GEN NMR

erre ene a

0 1
  C       37.323      44.449      33.159
  O       36.952      43.979      34.438
  H       38.240      45.035      33.253
  H       36.537      45.088      32.744
  H       37.509      43.606      32.490
  P       35.590      43.137      34.527
  C       33.873      45.018      34.922
  O       34.463      44.140      33.973
  C       32.630      45.683      34.333
  O       33.031      46.475      33.184
  C       31.569      44.686      33.856
  O       30.272      45.230      34.104
  C       31.805      44.620      32.357
  O       30.651      44.182      31.646
  C       32.236      46.055      32.063
  N       32.093      45.022      27.081
  C       31.141      44.996      28.038
  N       31.262      45.312      29.344
  C       32.508      45.742      29.614
  C       33.581      45.824      28.746
  C       33.339      45.429      27.418
  N       34.309      45.418      26.444
  N       34.706      46.267      29.412
  C       34.316      46.459      30.659
  N       32.999      46.134      30.830
  O       35.296      42.523      35.854
  O       35.759      42.106      33.315
  H       30.340      43.343      32.046
  H       36.067      42.553      32.505
  H       30.155      44.670      27.715
  H       34.946      46.812      31.468
  H       31.384      46.739      31.963
  H       32.618      43.918      32.140
  H       31.657      43.707      34.329
  H       32.218      46.380      35.071
  H       34.593      45.788      35.221
  H       34.048      45.122      25.516
  H       35.244      45.723      26.671
  H       33.608      44.429      35.807
  P       29.610      45.039      35.551
  C       28.690      42.730      34.872
  O       29.432      43.467      35.833
  O       28.402      45.868      35.825
  O       30.810      45.429      36.542
  H       30.454      45.968      37.276
  H       28.642      41.703      35.169
  H       29.170      42.803      33.918
  H       27.699      43.128      34.804

 6  7  8  9  10  11  12  13  14  15  25  28  32  33  34  35 0
 6-311+G(2d,p)
 ****
 36  39  40 0
 6-311+G(2d,p)
 ****
 1  2  3  4  5  16  17  18  19  20  21  22  23  24 0
 3-21G
 ****
 26  27  29  30  31  37  38  41  42  43  44  45  46  47 0
 3-21G
 ****
 48 0
 3-21G
 ****


