%nproc=1
%NoSave
%Mem=1900MB
#P OB98/GEN NMR

erre ene a

0 1
  C       68.297     432.102      59.894
  O       68.305     431.796      58.510
  P       66.942     431.671      57.688
  C       66.327     429.248      58.492
  O       66.646     430.124      57.434
  C       65.270     428.248      58.007
  O       64.000     428.910      57.837
  C       65.661     427.624      56.670
  O       66.324     426.386      56.868
  C       64.323     427.487      55.966
  O       63.637     426.303      56.416
  C       63.583     428.754      56.453
  N       63.846     430.026      55.753
  C       63.335     431.214      56.270
  O       62.688     431.283      57.310
  N       63.577     432.340      55.524
  C       64.300     432.388      54.365
  O       64.303     433.337      53.591
  C       65.033     431.165      54.027
  C       64.760     430.054      54.709
  O       67.341     432.215      56.239
  O       65.777     432.409      58.262
  H       62.858     426.189      55.843
  H       67.068     433.146      56.133
  H       63.089     433.180      55.818
  H       65.729     431.197      53.199
  H       65.263     429.126      54.449
  H       62.499     428.600      56.448
  H       64.453     427.371      54.891
  H       66.289     428.317      56.096
  H       65.144     427.468      58.769
  H       65.951     429.816      59.349
  H       67.225     428.718      58.823
  P       67.853     426.228      56.427
  C       67.301     427.003      54.048
  O       67.811     425.955      54.848
  O       68.657     425.256      57.226
  O       68.427     427.719      56.554
  H       68.894     427.824      57.408
  H       67.491     426.766      52.998
  H       67.790     427.949      54.295
  H       66.223     427.092      54.200
  H       69.303     432.140      60.257
  H       67.756     431.346      60.423
  H       67.826     433.051      60.047

 3  4  5  6  7  8  9  10  11  12  13  23  28  29  30  31  32 0
 6-311+G(2d,p)
 ****
 33  34 0
 6-311+G(2d,p)
 ****
 1  2  14  15  16  17  18  19  20  21  22  24  25  26  27 0
 3-21G
 ****
 35  36  37  38  39  40  41  42  43  44  45 0
 3-21G
 ****


