%nproc=1
%NoSave
%Mem=1900MB
#P OB98/GEN NMR

erre ene a

0 1
  C     -298.536     239.153     -51.433
  O     -297.964     238.859     -50.170
  P     -297.695     240.025     -49.103
  C     -299.661     239.053     -47.759
  O     -299.069     240.231     -48.297
  C     -300.368     239.360     -46.442
  O     -299.373     239.664     -45.436
  C     -301.314     240.552     -46.524
  O     -302.451     240.303     -45.693
  C     -300.526     241.702     -45.918
  O     -301.398     242.705     -45.375
  C     -299.664     240.964     -44.889
  N     -297.047     243.847     -41.544
  C     -298.282     243.301     -41.485
  N     -298.923     242.567     -42.420
  C     -298.134     242.370     -43.487
  C     -296.852     242.861     -43.687
  C     -296.304     243.637     -42.653
  N     -295.039     244.184     -42.710
  N     -296.368     242.472     -44.922
  C     -297.333     241.748     -45.446
  N     -298.415     241.645     -44.613
  O     -297.116     241.274     -49.667
  O     -296.734     239.359     -48.014
  H     -302.103     242.235     -44.882
  H     -296.070     240.006     -47.709
  H     -298.829     243.477     -40.561
  H     -297.302     241.285     -46.421
  H     -300.199     240.822     -43.942
  H     -299.911     242.174     -46.693
  H     -301.639     240.770     -47.548
  H     -300.904     238.461     -46.114
  H     -298.866     238.320     -47.579
  H     -294.686     244.619     -41.876
  H     -294.424     243.884     -43.456
  H     -300.362     238.633     -48.488
  P     -303.889     240.568     -46.369
  C     -304.653     238.094     -46.645
  O     -304.165     239.265     -47.259
  O     -303.949     241.891     -47.055
  O     -304.858     240.427     -45.102
  H     -304.456     239.865     -44.402
  H     -304.740     237.311     -47.402
  H     -305.642     238.275     -46.217
  H     -303.965     237.757     -45.863
  H     -298.635     238.250     -51.998
  H     -297.904     239.836     -51.960
  H     -299.501     239.595     -51.294

 3  4  5  6  7  8  9  10  11  12  22  25  29  30  31  32 0
 6-311+G(2d,p)
 ****
 33  36  37 0
 6-311+G(2d,p)
 ****
 1  2  13  14  15  16  17  18  19  20  21  23  24  26 0
 3-21G
 ****
 27  28  34  35  38  39  40  41  42  43  44  45  46  47  48 0
 3-21G
 ****


