%nproc=1
%NoSave
%Mem=1900MB
#P OB98/GEN NMR

erre ene a

0 1
  C     -896.480     382.963    -239.363
  O     -896.400     383.285    -237.987
  P     -897.520     384.189    -237.271
  C     -897.100     386.140    -238.906
  O     -897.090     385.711    -237.558
  C     -897.170     387.665    -239.001
  O     -898.420     388.157    -238.465
  C     -896.070     388.395    -238.213
  O     -894.840     388.331    -238.906
  C     -896.680     389.773    -238.077
  O     -896.440     390.547    -239.264
  C     -898.180     389.489    -237.924
  N     -898.640     389.577    -236.538
  C     -898.630     390.862    -235.982
  O     -898.230     391.821    -236.654
  N     -899.020     391.010    -234.684
  C     -899.370     389.967    -233.976
  N     -899.750     390.209    -232.677
  C     -899.360     388.601    -234.511
  C     -898.970     388.493    -235.786
  O     -897.790     383.853    -235.842
  O     -898.780     383.991    -238.231
  H     -895.460     390.787    -239.232
  H     -899.190     383.097    -238.103
  H     -899.640     387.777    -233.896
  H     -898.930     387.496    -236.264
  H     -898.760     390.170    -238.525
  H     -896.240     390.343    -237.230
  H     -895.980     387.916    -237.217
  H     -897.120     387.948    -240.072
  H     -899.700     391.170    -232.359
  H     -898.000     385.707    -239.392
  H     -900.000     389.480    -232.057
  H     -896.230     385.764    -239.414
  P     -893.580     387.608    -238.223
  C     -893.480     389.212    -236.206
  O     -892.780     388.721    -237.362
  O     -892.720     386.805    -239.141
  O     -894.240     386.683    -237.097
  H     -893.830     385.806    -237.114
  H     -892.730     389.695    -235.570
  H     -893.980     388.405    -235.673
  H     -894.180     389.964    -236.522
  H     -895.642     382.357    -239.637
  H     -896.473     383.863    -239.941
  H     -897.385     382.425    -239.551

 3  4  5  6  7  8  9  10  11  12  13  23  27  28  29  30  32 0
 6-311+G(2d,p)
 ****
 34  35 0
 6-311+G(2d,p)
 ****
 1  2  14  15  16  17  18  19  20  21  22  24  25  26 0
 3-21G
 ****
 31  33  36  37  38  39  40  41  42  43  44  45  46 0
 3-21G
 ****


