%nproc=1
%NoSave
%Mem=1900MB
#P OB98/GEN NMR

erre ene a

0 1
  C      582.494     189.122     801.248
  O      582.626     188.512     802.517
  P      582.626     186.904     802.571
  C      581.008     186.579     804.595
  O      581.216     186.462     803.182
  C      580.324     185.318     805.127
  O      579.033     185.160     804.515
  C      581.078     184.026     804.852
  O      582.193     183.886     805.709
  C      579.964     183.000     805.065
  O      579.772     182.786     806.478
  C      578.737     183.732     804.476
  N      577.128     179.924     801.447
  C      577.340     179.997     802.779
  N      577.781     181.029     803.513
  C      578.025     182.097     802.715
  C      577.888     182.173     801.346
  C      577.418     181.027     800.697
  N      577.218     180.957     799.338
  N      578.259     183.419     800.881
  C      578.598     184.085     801.970
  N      578.460     183.336     803.112
  O      583.657     186.572     803.749
  O      583.004     186.241     801.290
  H      578.943     182.274     806.590
  H      584.143     185.747     803.560
  H      577.101     179.087     803.338
  H      578.946     185.113     801.980
  H      577.824     183.569     805.055
  H      580.167     182.038     804.610
  H      581.409     183.993     803.806
  H      580.179     185.454     806.207
  H      580.363     187.444     804.793
  H      577.020     180.053     798.939
  H      577.567     181.721     798.768
  H      581.976     186.744     805.078
  P      583.455     183.058     805.165
  C      583.160     181.164     806.863
  O      583.095     181.525     805.495
  O      584.570     183.404     806.257
  O      583.815     183.346     803.734
  H      584.246     183.289     807.163
  H      582.840     180.124     806.951
  H      582.489     181.796     807.463
  H      584.181     181.255     807.232
  H      582.510     190.186     801.360
  H      581.567     188.824     800.804
  H      583.305     188.818     800.620

 3  4  5  6  7  8  9  10  11  12  22  25  29  30  31  32 0
 6-311+G(2d,p)
 ****
 33  36  37 0
 6-311+G(2d,p)
 ****
 1  2  13  14  15  16  17  18  19  20  21  23  24  26 0
 3-21G
 ****
 27  28  34  35  38  39  40  41  42  43  44  45  46  47  48 0
 3-21G
 ****


