%nproc=1
%NoSave
%Mem=1900MB
#P OB98/GEN NMR

erre ene a

0 1
  C     1117.119     724.978    -502.104
  O     1116.089     724.564    -501.225
  H     1116.668     725.479    -502.962
  H     1117.694     724.118    -502.457
  H     1117.785     725.688    -501.595
  P     1116.487     723.703    -499.935
  C     1114.297     724.872    -499.192
  O     1115.186     723.789    -498.983
  C     1112.942     724.585    -498.549
  O     1112.235     723.543    -499.270
  C     1113.024     724.076    -497.100
  O     1113.346     725.095    -496.167
  C     1111.595     723.559    -496.933
  O     1110.707     724.665    -496.744
  C     1111.355     722.886    -498.315
  N     1111.632     721.433    -498.288
  C     1110.534     720.601    -498.066
  O     1109.407     721.062    -497.899
  N     1110.737     719.240    -498.015
  C     1111.949     718.773    -498.136
  N     1112.102     717.407    -498.008
  C     1113.129     719.614    -498.389
  C     1112.915     720.931    -498.454
  O     1117.785     724.045    -499.281
  O     1116.413     722.172    -500.434
  H     1110.939     725.094    -495.903
  H     1116.659     721.594    -499.670
  H     1114.108     719.166    -498.480
  H     1113.721     721.615    -498.618
  H     1110.324     723.046    -498.646
  H     1111.479     722.886    -496.070
  H     1113.713     723.232    -497.030
  H     1112.340     725.498    -498.622
  H     1111.280     716.868    -497.797
  H     1114.188     725.025    -500.276
  H     1113.009     717.017    -497.825
  H     1114.699     725.783    -498.740
  P     1114.452     724.746    -495.034
  C     1115.745     726.912    -495.680
  O     1115.138     726.137    -494.648
  O     1115.575     723.974    -495.868
  O     1113.930     723.979    -493.852
  H     1115.423     723.001    -495.821
  H     1116.155     727.807    -495.260
  H     1115.009     727.167    -496.414
  H     1116.526     726.344    -496.140

 6  7  8  9  10  11  12  13  14  15  16  26  30  31  32  33  35 0
 6-311+G(2d,p)
 ****
 37  38 0
 6-311+G(2d,p)
 ****
 1  2  3  4  5  17  18  19  20  21  22  23  24  25 0
 3-21G
 ****
 27  28  29  34  36  39  40  41  42  43  44  45  46 0
 3-21G
 ****


