%nproc=1
%NoSave
%Mem=1900MB
#P OB98/GEN NMR

erre ene a

0 1
  C       68.901     250.492    -539.680
  O       67.792     249.636    -539.897
  P       67.519     248.465    -538.838
  C       68.215     246.461    -540.319
  O       67.147     247.154    -539.683
  C       67.687     245.455    -541.334
  O       67.063     244.345    -540.618
  C       66.627     246.018    -542.295
  O       66.894     245.533    -543.628
  C       65.331     245.373    -541.835
  O       64.367     245.281    -542.881
  C       65.861     244.029    -541.331
  N       61.643     241.254    -541.322
  C       62.436     241.625    -542.383
  N       62.012     241.265    -543.614
  N       63.545     242.310    -542.246
  C       63.862     242.576    -540.951
  C       63.150     242.246    -539.814
  C       61.892     241.550    -539.979
  O       61.096     241.259    -539.099
  N       63.794     242.677    -538.683
  C       64.892     243.278    -539.122
  N       64.944     243.284    -540.500
  O       66.145     248.899    -538.166
  O       68.599     248.285    -537.799
  H       63.516     245.064    -542.462
  H       66.243     248.964    -537.194
  H       60.790     240.744    -541.487
  H       65.645     243.735    -538.497
  H       66.135     243.389    -542.189
  H       64.907     245.968    -541.017
  H       61.187     240.712    -543.785
  H       66.560     247.114    -542.313
  H       62.601     241.523    -544.400
  H       68.536     245.032    -541.882
  H       68.809     245.936    -539.573
  H       68.859     247.195    -540.829
  P       66.840     246.650    -544.799
  C       65.398     245.064    -546.300
  O       66.585     245.836    -546.154
  O       68.368     247.127    -544.918
  O       65.904     247.781    -544.519
  H       68.404     248.036    -545.286
  H       64.689     245.265    -545.478
  H       65.659     244.008    -546.298
  H       64.926     245.326    -547.245
  H       68.951     251.217    -540.465
  H       69.801     249.914    -539.670
  H       68.788     250.991    -538.740

 3  4  5  6  7  8  9  10  11  12  23  26  30  31  33  0
 6-311+G(2d,p)
 ****
 35  36  37  38 0
 6-311+G(2d,p)
 ****
 1  2  13  14  15  16  17  18  19  20  21  22  24  25  27  28  29 0
 3-21G
 ****
 32  34  39  40  41  42  43  44  45  46  47  48  49 0
 3-21G
 ****


