%nproc=1
%NoSave
%Mem=1900MB
#P OB98/GEN NMR

erre ene a

0 1
  C      109.780    -823.957     662.733
  O      109.907    -822.773     661.978
  H      110.012    -823.737     663.775
  H      110.481    -824.713     662.365
  H      108.758    -824.338     662.671
  P      109.583    -822.865     660.403
  C      111.794    -823.979     659.578
  O      111.022    -822.786     659.683
  C      113.246    -823.646     659.240
  O      113.330    -823.268     657.843
  C      113.820    -822.496     660.072
  O      115.153    -822.826     660.478
  C      113.833    -821.317     659.118
  O      114.829    -820.351     659.459
  C      114.021    -822.002     657.759
  N      113.497    -821.187     656.660
  C      114.347    -820.188     656.163
  O      115.468    -820.024     656.648
  N      113.892    -819.374     655.156
  C      112.666    -819.498     654.734
  N      112.265    -818.640     653.753
  C      111.726    -820.506     655.269
  C      112.204    -821.304     656.216
  O      108.930    -821.442     660.092
  O      108.744    -824.026     659.998
  H      114.572    -819.944     660.316
  H      108.488    -821.432     659.208
  H      110.706    -820.555     654.896
  H      111.577    -822.070     656.665
  H      115.085    -822.210     657.569
  H      112.854    -820.815     659.150
  H      113.226    -822.278     660.957
  H      113.848    -824.562     659.346
  H      112.941    -817.961     653.420
  H      111.360    -824.613     658.794
  H      111.333    -818.627     653.371
  H      111.750    -824.511     660.539
  P      115.282    -824.029     661.546
  C      115.734    -822.904     663.833
  O      116.285    -823.548     662.698
  O      116.106    -825.148     660.750
  O      113.961    -824.530     662.029
  H      115.503    -825.833     660.403
  H      116.519    -822.642     664.511
  H      115.048    -823.565     664.320
  H      115.219    -822.018     663.525

 6  7  8  9  10  11  12  13  14  15  16  26  30  31  32  33  35 0
 6-311+G(2d,p)
 ****
 37  38 0
 6-311+G(2d,p)
 ****
 1  2  3  4  5  17  18  19  20  21  22  23  24  25 0
 3-21G
 ****
 27  28  29  34  36  39  40  41  42  43  44  45  46 0
 3-21G
 ****


