%nproc=1
%NoSave
%Mem=1900MB
#P OB98/GEN NMR

erre ene a

0 1
  C      382.396    -244.603    -136.941
  O      382.170    -243.211    -137.003
  H      383.088    -244.806    -136.119
  H      382.850    -244.942    -137.875
  H      381.467    -245.151    -136.763
  P      380.889    -242.674    -137.799
  C      379.403    -244.186    -136.325
  O      379.723    -243.772    -137.647
  C      378.208    -245.141    -136.302
  O      377.959    -245.597    -134.955
  C      376.916    -244.467    -136.769
  O      376.723    -244.431    -138.171
  C      375.855    -245.329    -136.093
  O      375.545    -246.485    -136.892
  C      376.536    -245.745    -134.786
  N      373.509    -245.512    -130.678
  C      373.592    -246.497    -131.641
  N      372.720    -247.525    -131.522
  N      374.445    -246.466    -132.633
  C      375.186    -245.336    -132.673
  C      375.182    -244.284    -131.787
  C      374.273    -244.355    -130.658
  O      374.154    -243.503    -129.782
  N      376.082    -243.311    -132.157
  C      376.570    -243.738    -133.300
  N      376.081    -244.979    -133.644
  O      381.309    -242.828    -139.339
  O      380.486    -241.265    -137.489
  H      374.809    -246.962    -136.467
  H      380.822    -242.184    -139.883
  H      372.854    -245.604    -129.922
  H      377.299    -243.208    -133.904
  H      376.351    -246.805    -134.558
  H      374.917    -244.782    -135.953
  H      371.971    -247.536    -130.847
  H      376.847    -243.454    -136.358
  H      372.570    -248.120    -132.341
  H      378.441    -246.029    -136.904
  H      379.167    -243.281    -135.761
  H      380.272    -244.649    -135.853
  P      375.966    -243.192    -138.845
  C      377.879    -241.849    -139.986
  O      377.007    -241.973    -138.885
  O      374.915    -242.762    -137.717
  O      375.293    -243.493    -140.140
  H      374.044    -243.159    -137.897
  H      378.501    -240.989    -139.853
  H      377.307    -241.740    -140.884
  H      378.491    -242.724    -140.057

 6  7  8  9  10  11  12  13  14  15  26  29  33  34 0
 6-311+G(2d,p)
 ****
 36  38  39  40  41 0
 6-311+G(2d,p)
 ****
 1  2  3  4  5  16  17  18  19  20  21  22  23  24  25 0
 3-21G
 ****
 27  28  30  31  32  35  37  42  43  44  45  46  47 0
 3-21G
 ****
 48  49 0
 3-21G
 ****


