%nproc=1
%NoSave
%Mem=1900MB
#P OB98/GEN NMR

erre ene a

0 1
  C     -458.962     173.962     259.219
  O     -458.588     173.047     260.263
  P     -458.681     173.531     261.795
  C     -457.342     175.648     261.040
  O     -458.369     175.105     261.855
  C     -456.973     177.062     261.521
  O     -457.998     178.006     261.140
  C     -456.854     177.185     263.037
  O     -455.635     176.653     263.512
  C     -456.964     178.703     263.219
  O     -455.693     179.340     262.982
  C     -457.977     179.079     262.113
  N     -459.304     179.356     262.636
  C     -459.471     180.566     263.309
  O     -458.548     181.351     263.508
  N     -460.736     180.829     263.762
  C     -461.804     179.993     263.682
  O     -462.910     180.273     264.129
  C     -461.559     178.694     263.040
  C     -460.332     178.435     262.557
  O     -457.343     172.908     262.426
  O     -459.886     173.068     262.551
  H     -455.874     180.295     262.916
  H     -457.476     172.739     263.374
  H     -460.883     181.715     264.223
  H     -462.377     177.988     262.978
  H     -460.131     177.485     262.076
  H     -457.616     179.965     261.561
  H     -457.289     178.982     264.223
  H     -457.708     176.709     263.523
  H     -456.031     177.356     261.030
  H     -457.689     175.706     260.003
  H     -456.463     174.986     261.085
  P     -455.741     175.531     264.664
  C     -456.100     177.488     266.352
  O     -456.520     176.231     265.872
  O     -454.216     175.438     265.146
  O     -456.311     174.249     264.163
  H     -453.762     176.298     265.093
  H     -455.693     178.113     265.555
  H     -455.343     177.344     267.131
  H     -456.960     178.000     266.796
  H     -458.843     173.486     258.268
  H     -458.338     174.830     259.265
  H     -459.984     174.251     259.347

 3  4  5  6  7  8  9  10  11  12  13  23  28  29  30  31  32 0
 6-311+G(2d,p)
 ****
 33  34 0
 6-311+G(2d,p)
 ****
 1  2  14  15  16  17  18  19  20  21  22  24  25  26 0
 3-21G
 ****
 27  35  36  37  38  39  40  41  42  43  44  45 0
 3-21G
 ****


