%nproc=1
%NoSave
%Mem=1900MB
#P OB98/GEN NMR

erre ene a

0 1
  C       63.036     119.487    -431.686
  O       64.443     119.428    -431.629
  H       62.741     120.411    -432.194
  H       62.615     119.496    -430.676
  H       62.628     118.641    -432.248
  P       65.139     118.079    -431.117
  C       64.812     116.445    -429.149
  O       64.378     117.642    -429.777
  C       64.379     116.425    -427.686
  O       64.953     117.552    -426.982
  C       62.871     116.543    -427.486
  O       62.227     115.315    -427.777
  C       62.813     116.970    -426.028
  O       62.976     115.837    -425.154
  C       64.030     117.918    -425.934
  N       63.662     119.339    -426.031
  C       63.277     119.952    -424.847
  O       63.204     119.365    -423.772
  N       62.970     121.292    -424.945
  C       62.925     122.019    -426.099
  O       62.591     123.195    -426.142
  C       63.306     121.297    -427.319
  C       63.652     120.016    -427.238
  O       66.632     118.119    -431.008
  O       64.662     116.981    -432.176
  H       62.140     115.328    -425.204
  H       65.369     116.815    -432.827
  H       62.678     121.751    -424.096
  H       63.279     121.843    -428.259
  H       63.931     119.467    -428.127
  H       64.555     117.771    -424.988
  H       61.855     117.438    -425.763
  H       62.466     117.349    -428.107
  H       64.761     115.509    -427.229
  H       65.907     116.394    -429.201
  H       64.394     115.585    -429.690
  P       60.627     115.194    -427.735
  C       58.805     114.917    -425.969
  O       60.199     114.947    -426.210
  O       60.042     114.233    -428.712
  O       60.125     116.686    -428.020
  H       59.769     116.757    -428.931
  H       58.627     114.748    -424.928
  H       58.361     114.128    -426.540
  H       58.373     115.853    -426.257

 6  7  8  9  10  11  12  13  14  15  16  26  31  32  33  34  35 0
 6-311+G(2d,p)
 ****
 36  37 0
 6-311+G(2d,p)
 ****
 1  2  3  4  5  17  18  19  20  21  22  23  24  25 0
 3-21G
 ****
 27  28  29  30  38  39  40  41  42  43  44  45 0
 3-21G
 ****


