%nproc=1
%NoSave
%Mem=1900MB
#P OB98/GEN NMR

erre ene a

0 1
  C      562.564     326.455     916.948
  O      561.371     326.890     917.562
  H      563.386     327.133     917.189
  H      562.810     325.459     917.321
  H      562.429     326.402     915.863
  P      560.896     328.386     917.221
  C      559.976     328.025     914.825
  O      561.021     328.551     915.627
  C      559.294     329.151     914.051
  O      558.565     330.004     914.956
  C      560.246     330.074     913.304
  O      560.696     329.501     912.083
  C      559.336     331.274     913.053
  O      558.489     331.015     911.920
  C      558.495     331.321     914.343
  N      557.984     336.156     916.011
  C      557.370     335.471     915.011
  N      557.559     334.198     914.627
  C      558.493     333.596     915.383
  C      559.208     334.165     916.429
  C      558.921     335.507     916.738
  N      559.574     336.195     917.742
  N      560.075     333.242     916.985
  C      559.882     332.137     916.289
  N      558.945     332.308     915.302
  O      562.096     329.294     917.781
  O      559.586     328.793     917.808
  H      559.066     330.676     911.210
  H      561.723     330.122     918.139
  H      556.613     336.027     914.468
  H      560.401     331.207     916.464
  H      557.437     331.517     914.122
  H      559.888     332.194     912.849
  H      561.086     330.385     913.935
  H      558.567     328.699     913.360
  H      559.239     327.535     915.464
  H      559.192     337.080     918.042
  H      560.270     335.702     918.285
  H      560.393     327.287     914.135
  P      562.125     329.986     911.525
  C      563.200     327.935     912.700
  O      563.217     329.347     912.520
  O      562.157     331.535     911.891
  O      562.343     329.751     910.069
  H      562.752     332.016     911.285
  H      563.975     327.653     913.382
  H      563.361     327.453     911.758
  H      562.251     327.637     913.095

 6  7  8  9  10  11  12  13  14  15  25  28  32  33  34  35 0
 6-311+G(2d,p)
 ****
 36  39  40 0
 6-311+G(2d,p)
 ****
 1  2  3  4  5  16  17  18  19  20  21  22  23  24 0
 3-21G
 ****
 26  27  29  30  31  37  38  41  42  43  44  45  46  47  48 0
 3-21G
 ****


