%nproc=1
%NoSave
%Mem=1900MB
#P OB98/GEN NMR

erre ene a

0 1
  C       71.704    -132.030     111.237
  O       71.400    -132.106     112.611
  H       72.452    -132.794     111.005
  H       72.127    -131.052     110.992
  H       70.814    -132.216     110.633
  P       70.355    -131.064     113.243
  C       67.815    -131.031     113.615
  O       68.915    -131.771     113.102
  C       67.077    -131.820     114.696
  O       66.484    -133.010     114.108
  C       67.979    -132.278     115.853
  O       67.347    -131.988     117.102
  C       68.067    -133.784     115.663
  O       68.370    -134.481     116.868
  C       66.695    -134.078     115.050
  N       66.645    -135.391     114.421
  C       66.697    -136.490     115.285
  O       66.774    -136.320     116.502
  N       66.717    -137.752     114.750
  C       66.733    -137.903     113.462
  N       66.784    -139.179     112.996
  C       66.708    -136.770     112.514
  C       66.661    -135.554     113.056
  O       70.438    -129.683     112.687
  O       70.621    -131.123     114.821
  H       69.294    -134.272     117.125
  H       70.290    -130.291     115.231
  H       66.729    -136.950     111.449
  H       66.641    -134.662     112.440
  H       65.905    -134.023     115.810
  H       68.858    -134.011     114.934
  H       68.965    -131.814     115.838
  H       66.242    -131.211     115.062
  H       66.806    -139.925     113.682
  H       67.139    -130.790     112.788
  H       66.825    -139.419     112.017
  H       68.197    -130.102     114.050
  P       67.835    -130.655     117.851
  C       67.332    -128.156     117.370
  O       66.817    -129.474     117.475
  O       69.181    -130.269     117.076
  O       68.078    -130.849     119.311
  H       69.952    -130.418     117.656
  H       66.540    -127.483     117.115
  H       68.084    -128.126     116.609
  H       67.760    -127.865     118.306

 6  7  8  9  10  11  12  13  14  15  16  26  30  31  32  33  35 0
 6-311+G(2d,p)
 ****
 37  38 0
 6-311+G(2d,p)
 ****
 1  2  3  4  5  17  18  19  20  21  22  23  24  25 0
 3-21G
 ****
 27  28  29  34  36  39  40  41  42  43  44  45  46 0
 3-21G
 ****


