%nproc=1
%NoSave
%Mem=1900MB
#P OB98/GEN NMR

erre ene a

0 1
  C      325.602     405.720      77.826
  O      325.883     407.044      77.406
  P      325.498     408.298      78.326
  C      323.613     409.099      76.780
  O      323.946     408.635      78.081
  C      322.094     409.242      76.611
  O      321.810     409.889      75.340
  C      321.326     407.909      76.638
  O      320.103     408.139      77.337
  C      321.066     407.625      75.174
  O      319.974     406.745      74.976
  C      320.859     409.056      74.640
  N      321.037     409.139      73.201
  C      320.178     408.359      72.412
  O      319.420     407.547      72.946
  N      320.221     408.508      71.049
  C      321.157     409.227      70.514
  N      321.131     409.406      69.161
  C      322.233     409.867      71.302
  C      322.086     409.818      72.623
  O      326.412     409.479      78.203
  O      325.513     407.723      79.821
  H      326.082     408.281      80.376
  H      319.866     406.584      74.014
  H      323.068     410.353      70.808
  H      322.808     410.282      73.302
  H      319.855     409.421      74.902
  H      321.959     407.179      74.719
  H      321.883     407.111      77.149
  H      321.726     409.906      77.404
  H      320.354     408.988      68.656
  H      323.980     408.370      76.055
  H      321.605     410.187      68.707
  H      324.116     410.050      76.581
  P      319.692     407.144      78.529
  C      318.183     405.810      76.889
  O      319.199     405.768      77.877
  O      318.316     407.789      79.041
  O      320.657     407.041      79.676
  H      318.176     407.538      79.978
  H      317.924     404.789      76.606
  H      318.546     406.335      76.001
  H      317.292     406.301      77.281
  H      325.933     405.031      77.078
  H      324.548     405.608      77.972
  H      326.112     405.521      78.745

 3  4  5  6  7  8  9  10  11  12  13  24  27  28  29  30  32 0
 6-311+G(2d,p)
 ****
 34  35 0
 6-311+G(2d,p)
 ****
 1  2  14  15  16  17  18  19  20  21  22  23  25  26 0
 3-21G
 ****
 31  33  36  37  38  39  40  41  42  43  44  45  46 0
 3-21G
 ****


