%nproc=1
%NoSave
%Mem=1900MB
#P OB98/GEN NMR

erre ene a

0 1
  C      144.240    -725.748      80.518
  O      143.961    -724.961      79.385
  H      143.615    -726.646      80.485
  H      143.996    -725.186      81.424
  H      145.291    -726.052      80.549
  P      145.019    -723.850      78.939
  C      145.385    -724.298      76.421
  O      145.903    -724.451      77.737
  C      145.712    -725.506      75.541
  O      145.194    -726.704      76.153
  C      145.073    -725.407      74.151
  O      145.851    -724.701      73.196
  C      144.930    -726.877      73.767
  O      146.116    -727.363      73.116
  C      144.725    -727.579      75.113
  N      141.126    -731.199      74.847
  C      142.403    -731.203      74.308
  N      142.732    -732.289      73.580
  N      143.248    -730.219      74.458
  C      142.737    -729.160      75.124
  C      141.487    -729.034      75.690
  C      140.579    -730.155      75.579
  O      139.446    -730.213      76.052
  N      141.307    -727.796      76.257
  C      142.413    -727.146      75.956
  N      143.345    -727.957      75.345
  O      146.066    -723.824      80.156
  O      144.458    -722.480      78.699
  H      146.309    -726.774      72.360
  H      146.433    -722.928      80.252
  H      140.533    -731.997      74.719
  H      142.617    -726.109      76.202
  H      145.322    -728.499      75.177
  H      144.108    -727.017      73.062
  H      142.091    -733.033      73.353
  H      144.068    -724.973      74.217
  H      143.583    -732.247      73.011
  H      146.799    -725.620      75.475
  H      145.849    -723.400      76.010
  H      144.302    -724.129      76.458
  P      145.235    -723.474      72.381
  C      147.143    -721.673      72.546
  O      145.866    -722.126      72.950
  O      143.723    -723.421      72.899
  O      145.317    -723.585      70.898
  H      143.125    -723.855      72.262
  H      147.371    -720.755      73.046
  H      147.146    -721.513      71.488
  H      147.878    -722.408      72.798

 6  7  8  9  10  11  12  13  14  15  26  29  33  34 0
 6-311+G(2d,p)
 ****
 36  38  39  40  41 0
 6-311+G(2d,p)
 ****
 1  2  3  4  5  16  17  18  19  20  21  22  23  24  25 0
 3-21G
 ****
 27  28  30  31  32  35  37  42  43  44  45  46  47 0
 3-21G
 ****
 48  49 0
 3-21G
 ****


