%nproc=1
%NoSave
%Mem=1900MB
#P OB98/GEN NMR

erre ene a

0 1
  C     -414.503    -102.945    -191.411
  O     -413.647    -103.657    -190.536
  P     -413.715    -103.312    -188.976
  C     -413.997    -105.832    -188.367
  O     -414.501    -104.508    -188.255
  C     -413.540    -106.326    -186.990
  O     -414.640    -106.303    -186.061
  C     -413.035    -107.767    -187.002
  O     -411.709    -107.852    -187.501
  C     -413.158    -108.144    -185.531
  O     -412.016    -107.689    -184.787
  C     -414.426    -107.373    -185.109
  N     -415.599    -108.237    -184.986
  C     -415.939    -108.622    -183.695
  O     -415.291    -108.279    -182.700
  N     -417.026    -109.447    -183.583
  C     -417.757    -109.961    -184.614
  O     -418.684    -110.741    -184.453
  C     -417.333    -109.545    -185.962
  C     -416.283    -108.720    -186.087
  O     -414.742    -102.082    -188.899
  O     -412.405    -102.971    -188.355
  H     -412.194    -107.897    -183.853
  H     -414.466    -101.463    -188.198
  H     -417.304    -109.719    -182.656
  H     -417.884    -109.932    -186.807
  H     -415.943    -108.413    -187.069
  H     -414.260    -106.882    -184.143
  H     -413.228    -109.228    -185.387
  H     -413.719    -108.399    -187.590
  H     -412.762    -105.648    -186.622
  H     -413.152    -105.839    -189.061
  H     -414.781    -106.482    -188.769
  P     -411.522    -108.491    -188.960
  C     -409.979    -106.579    -189.858
  O     -411.220    -107.250    -189.926
  O     -413.027    -108.929    -189.290
  O     -410.523    -109.599    -188.985
  H     -413.681    -108.328    -188.894
  H     -409.161    -107.272    -189.641
  H     -410.022    -105.812    -189.077
  H     -409.788    -106.100    -190.822
  H     -414.347    -103.281    -192.415
  H     -414.288    -101.899    -191.348
  H     -415.522    -103.117    -191.132

 3  4  5  6  7  8  9  10  11  12  13  23  28  29  30  31  32 0
 6-311+G(2d,p)
 ****
 33  34 0
 6-311+G(2d,p)
 ****
 1  2  14  15  16  17  18  19  20  21  22  24  25  26 0
 3-21G
 ****
 27  35  36  37  38  39  40  41  42  43  44  45 0
 3-21G
 ****


