%nproc=1
%NoSave
%Mem=1900MB
#P OB98/GEN NMR

erre ene a

0 1
  C      -44.373     -23.042     158.848
  O      -42.989     -22.777     158.740
  P      -42.317     -21.590     159.583
  C      -41.330     -20.832     157.324
  O      -41.070     -21.095     158.700
  C      -40.150     -20.108     156.676
  O      -39.842     -18.897     157.393
  C      -38.860     -20.918     156.654
  O      -38.905     -21.898     155.633
  C      -37.829     -19.819     156.436
  O      -37.722     -19.472     155.046
  C      -38.427     -18.648     157.247
  N      -37.772     -18.474     158.537
  C      -36.639     -17.651     158.539
  O      -36.229     -17.152     157.492
  N      -35.970     -17.458     159.724
  C      -36.383     -18.052     160.800
  N      -35.671     -17.828     161.939
  C      -37.553     -18.949     160.832
  C      -38.192     -19.116     159.676
  O      -42.007     -21.914     161.005
  O      -43.366     -20.391     159.419
  H      -37.313     -20.242     154.605
  H      -44.173     -20.540     159.969
  H      -37.852     -19.431     161.751
  H      -39.060     -19.761     159.609
  H      -38.337     -17.708     156.687
  H      -36.831     -20.121     156.769
  H      -38.700     -21.384     157.632
  H      -40.441     -19.833     155.653
  H      -34.857     -17.230     161.867
  H      -42.222     -20.201     157.257
  H      -35.882     -18.268     162.820
  H      -41.537     -21.775     156.809
  P      -39.194     -23.426     156.007
  C      -37.526     -24.148     154.196
  O      -38.824     -24.321     154.730
  O      -40.534     -23.696     156.608
  O      -38.028     -23.783     157.045
  H      -38.409     -24.281     157.793
  H      -37.284     -25.016     153.575
  H      -36.782     -24.061     154.991
  H      -37.505     -23.250     153.574
  H      -44.629     -23.865     158.214
  H      -44.926     -22.176     158.550
  H      -44.611     -23.286     159.862

 3  4  5  6  7  8  9  10  11  12  13  23  27  28  29  30  32 0
 6-311+G(2d,p)
 ****
 34  35 0
 6-311+G(2d,p)
 ****
 1  2  14  15  16  17  18  19  20  21  22  24  25  26 0
 3-21G
 ****
 31  33  36  37  38  39  40  41  42  43  44  45  46 0
 3-21G
 ****


