%nproc=1
%NoSave
%Mem=1900MB
#P OB98/GEN NMR

erre ene a

0 1
  C      -80.198     237.237      63.393
  O      -79.845     238.531      63.840
  H      -81.247     237.058      63.645
  H      -79.587     236.487      63.900
  H      -80.078     237.153      62.311
  P      -78.396     239.109      63.474
  C      -79.224     241.535      63.771
  O      -78.272     240.556      64.162
  C      -78.812     242.922      64.273
  O      -79.047     242.989      65.703
  C      -77.336     243.254      64.024
  O      -77.214     244.638      63.695
  C      -76.686     242.986      65.367
  O      -75.495     243.748      65.554
  C      -77.806     243.353      66.339
  N      -74.797     242.724      70.350
  C      -74.676     243.578      69.271
  N      -73.585     244.371      69.245
  N      -75.550     243.646      68.300
  C      -76.605     242.811      68.469
  C      -76.839     241.922      69.488
  C      -75.854     241.840      70.547
  O      -75.897     241.091      71.519
  N      -78.013     241.236      69.294
  C      -78.486     241.712      68.156
  N      -77.661     242.662      67.611
  O      -78.055     239.081      62.017
  O      -77.385     238.214      64.330
  H      -74.808     243.350      64.977
  H      -76.921     237.572      63.762
  H      -74.089     242.702      71.063
  H      -79.409     241.403      67.687
  H      -77.832     244.426      66.561
  H      -76.428     241.922      65.450
  H      -72.884     244.387      69.971
  H      -76.906     242.648      63.228
  H      -73.486     245.028      68.479
  H      -79.466     243.670      63.806
  H      -80.194     241.262      64.201
  H      -79.311     241.539      62.679
  P      -76.274     245.067      62.468
  C      -77.860     246.935      61.689
  O      -76.546     246.613      62.124
  O      -76.296     244.148      61.293
  O      -74.816     245.109      63.138
  H      -74.158     244.820      62.474
  H      -77.923     247.985      61.491
  H      -78.563     246.674      62.453
  H      -78.084     246.389      60.796

 6  7  8  9  10  11  12  13  14  15  26  29  33  34 0
 6-311+G(2d,p)
 ****
 36  38  39  40  41 0
 6-311+G(2d,p)
 ****
 1  2  3  4  5  16  17  18  19  20  21  22  23  24  25 0
 3-21G
 ****
 27  28  30  31  32  35  37  42  43  44  45  46  47 0
 3-21G
 ****
 48  49 0
 3-21G
 ****


