%nproc=1
%NoSave
%Mem=1900MB
#P OB98/GEN NMR

erre ene a

0 1
  C      751.102    -205.543     367.010
  O      750.218    -206.006     365.971
  P      749.480    -204.925     365.031
  C      750.838    -205.668     362.920
  O      750.419    -204.604     363.770
  C      751.905    -205.171     361.941
  O      753.012    -204.568     362.656
  C      752.531    -206.262     361.083
  O      751.675    -206.660     360.029
  C      753.809    -205.578     360.605
  O      753.546    -204.736     359.469
  C      754.192    -204.725     361.837
  N      755.298    -205.297     362.598
  C      756.573    -204.867     362.246
  O      756.791    -204.095     361.306
  N      757.605    -205.386     362.983
  C      757.492    -206.320     363.970
  O      758.456    -206.762     364.586
  C      756.122    -206.802     364.244
  C      755.111    -206.276     363.550
  O      749.628    -203.581     365.901
  O      748.042    -205.209     364.727
  H      754.369    -204.245     359.283
  H      748.885    -202.979     365.694
  H      758.536    -205.061     362.760
  H      756.000    -207.559     365.002
  H      754.098    -206.619     363.743
  H      754.469    -203.713     361.519
  H      754.578    -206.291     360.309
  H      752.801    -207.122     361.719
  H      751.452    -204.396     361.309
  H      749.975    -206.034     362.353
  H      751.224    -206.485     363.536
  P      751.241    -208.209     360.000
  C      748.854    -207.656     360.919
  O      750.077    -208.346     361.094
  O      752.523    -208.900     360.665
  O      750.909    -208.702     358.622
  H      752.938    -208.332     361.342
  H      748.585    -207.571     359.865
  H      748.943    -206.654     361.355
  H      748.070    -208.198     361.451
  H      751.505    -206.383     367.536
  H      750.558    -204.923     367.692
  H      751.900    -204.979     366.574

 3  4  5  6  7  8  9  10  11  12  13  23  28  29  30  31  32 0
 6-311+G(2d,p)
 ****
 33  34 0
 6-311+G(2d,p)
 ****
 1  2  14  15  16  17  18  19  20  21  22  24  25  26 0
 3-21G
 ****
 27  35  36  37  38  39  40  41  42  43  44  45 0
 3-21G
 ****


