%nproc=1
%NoSave
%Mem=1900MB
#P OB98/GEN NMR

erre ene a

0 1
  C      530.388    -115.279    -506.682
  O      528.978    -115.180    -506.655
  H      530.832    -114.286    -506.806
  H      530.730    -115.696    -505.730
  H      530.715    -115.938    -507.488
  P      528.270    -114.594    -507.974
  C      526.146    -114.152    -506.543
  O      527.108    -113.623    -507.448
  C      525.898    -113.153    -505.409
  O      527.108    -112.959    -504.646
  C      525.486    -111.765    -505.883
  O      524.097    -111.697    -506.190
  C      525.811    -110.944    -504.648
  O      524.785    -111.133    -503.649
  C      527.133    -111.574    -504.192
  N      530.212    -107.516    -503.751
  C      529.101    -107.883    -503.088
  N      528.341    -108.976    -503.263
  C      528.821    -109.736    -504.253
  C      529.934    -109.492    -505.040
  C      530.661    -108.316    -504.754
  N      531.788    -107.938    -505.450
  N      530.099    -110.477    -505.995
  C      529.115    -111.328    -505.758
  N      528.303    -110.916    -504.728
  O      527.461    -115.852    -508.558
  O      529.185    -113.986    -508.987
  H      524.804    -110.345    -503.074
  H      527.261    -115.710    -509.499
  H      528.789    -107.203    -502.288
  H      528.940    -112.239    -506.307
  H      527.231    -111.587    -503.096
  H      525.862    -109.866    -504.850
  H      526.104    -111.416    -506.723
  H      525.144    -113.584    -504.736
  H      526.527    -115.090    -506.120
  H      532.120    -106.996    -505.286
  H      532.034    -108.444    -506.282
  H      525.211    -114.356    -507.080
  P      523.673    -110.834    -507.480
  C      521.249    -110.635    -506.541
  O      522.411    -109.951    -507.020
  O      523.032    -111.928    -508.460
  O      524.795    -110.078    -508.128
  H      523.115    -111.648    -509.384
  H      520.499    -109.920    -506.275
  H      521.507    -111.218    -505.682
  H      520.872    -111.278    -507.308

 6  7  8  9  10  11  12  13  14  15  25  28  32  33  34  35 0
 6-311+G(2d,p)
 ****
 36  39  40 0
 6-311+G(2d,p)
 ****
 1  2  3  4  5  16  17  18  19  20  21  22  23  24 0
 3-21G
 ****
 26  27  29  30  31  37  38  41  42  43  44  45  46  47 0
 3-21G
 ****
 48 0
 3-21G
 ****


