%nproc=1
%NoSave
%Mem=1900MB
#P OB98/GEN NMR

erre ene a

0 1
  C      548.478     181.903    -291.736
  O      547.307     181.613    -290.986
  P      546.076     182.644    -290.917
  C      547.630     184.399    -289.815
  O      546.433     183.646    -289.712
  C      547.644     185.524    -288.776
  O      548.879     186.270    -288.915
  C      546.485     186.518    -288.901
  O      546.129     186.928    -287.573
  C      547.104     187.665    -289.676
  O      546.399     188.892    -289.496
  C      548.526     187.653    -289.111
  N      549.480     188.321    -289.991
  C      549.927     189.597    -289.622
  O      549.504     190.143    -288.606
  N      550.842     190.229    -290.423
  C      551.223     189.681    -291.536
  N      552.176     190.318    -292.266
  C      550.695     188.384    -292.020
  C      549.861     187.762    -291.195
  O      544.737     182.013    -290.822
  O      546.273     183.584    -292.193
  H      545.542     188.817    -289.954
  H      545.876     183.197    -293.019
  H      551.014     187.982    -292.969
  H      549.439     186.793    -291.446
  H      548.548     188.125    -288.120
  H      547.099     187.426    -290.751
  H      545.601     186.084    -289.389
  H      547.650     185.067    -287.775
  H      552.636     191.109    -291.818
  H      547.672     184.844    -290.815
  H      552.736     189.815    -292.945
  H      548.495     183.741    -289.697
  P      544.675     187.559    -287.328
  C      545.097     190.100    -287.667
  O      544.864     189.044    -286.757
  O      544.200     186.757    -286.020
  O      543.682     187.379    -288.429
  H      543.216     186.739    -286.001
  H      545.191     191.029    -287.107
  H      544.257     190.195    -288.361
  H      546.022     189.930    -288.224
  H      549.168     181.090    -291.648
  H      548.930     182.797    -291.360
  H      548.218     182.040    -292.765

 3  4  5  6  7  8  9  10  11  12  13  23  27  28  29  30  32 0
 6-311+G(2d,p)
 ****
 34  35 0
 6-311+G(2d,p)
 ****
 1  2  14  15  16  17  18  19  20  21  22  24  25  26 0
 3-21G
 ****
 31  33  36  37  38  39  40  41  42  43  44  45  46 0
 3-21G
 ****


