%nproc=1
%NoSave
%Mem=1900MB
#P OB98/GEN NMR

erre ene a

0 1
  C      209.873     400.147     468.528
  O      210.747     400.955     467.767
  H      208.888     400.620     468.535
  H      210.239     400.067     469.551
  H      209.782     399.148     468.088
  P      212.159     400.355     467.314
  C      213.626     402.484     467.214
  O      212.914     401.500     466.477
  C      214.481     403.356     466.282
  O      215.315     402.488     465.464
  C      213.605     404.168     465.319
  O      214.250     405.383     464.916
  C      213.492     403.258     464.115
  O      213.178     403.956     462.905
  C      214.867     402.587     464.106
  N      214.694     399.897     459.765
  C      214.485     401.246     459.968
  N      214.183     401.979     458.858
  N      214.526     401.825     461.138
  C      214.762     400.957     462.158
  C      214.972     399.598     462.094
  C      214.950     398.984     460.784
  O      215.112     397.783     460.553
  N      215.167     399.057     463.342
  C      215.072     400.086     464.162
  N      214.853     401.261     463.492
  O      211.771     399.295     466.177
  O      212.973     399.719     468.404
  H      213.880     404.616     462.754
  H      212.479     398.628     466.075
  H      214.674     399.506     458.838
  H      215.180     400.037     465.241
  H      215.589     403.201     463.553
  H      212.673     402.556     464.293
  H      213.946     401.538     457.983
  H      212.629     404.407     465.731
  H      213.722     402.878     459.028
  H      215.161     403.985     466.874
  H      214.251     401.950     467.938
  H      212.923     403.110     467.788
  P      213.457     406.766     465.119
  C      213.799     408.586     463.216
  O      214.251     407.957     464.403
  O      213.629     407.085     466.674
  O      212.012     406.723     464.707
  H      212.752     407.061     467.125
  H      214.493     409.349     462.930
  H      212.838     409.025     463.388
  H      213.724     407.860     462.434

 6  7  8  9  10  11  12  13  14  15  26  29  33  34 0
 6-311+G(2d,p)
 ****
 36  38  39  40  41 0
 6-311+G(2d,p)
 ****
 1  2  3  4  5  16  17  18  19  20  21  22  23  24  25 0
 3-21G
 ****
 27  28  30  31  32  35  37  42  43  44  45  46  47 0
 3-21G
 ****
 48  49 0
 3-21G
 ****


