%nproc=1
%NoSave
%Mem=1900MB
#P OB98/GEN NMR

erre ene a

0 1
  C      254.236     -41.908    -109.290
  O      253.310     -42.451    -110.204
  P      253.241     -44.039    -110.450
  C      254.904     -45.813    -111.293
  O      254.580     -44.426    -111.248
  C      256.404     -45.998    -111.501
  O      257.154     -45.603    -110.313
  C      256.826     -47.438    -111.748
  O      256.390     -48.053    -112.940
  C      258.328     -47.354    -111.523
  O      258.995     -46.853    -112.684
  C      258.407     -46.327    -110.365
  N      258.707     -46.969    -109.077
  C      260.035     -47.338    -108.889
  O      260.925     -47.150    -109.718
  N      260.312     -47.963    -107.704
  C      259.404     -48.295    -106.737
  O      259.714     -48.900    -105.714
  C      258.012     -47.897    -107.008
  C      257.735     -47.264    -108.150
  O      251.980     -44.527    -111.076
  O      253.525     -44.646    -108.990
  H      258.967     -47.550    -113.365
  H      254.383     -44.398    -108.606
  H      261.264     -48.257    -107.542
  H      257.269     -48.136    -106.254
  H      256.714     -46.955    -108.374
  H      259.192     -45.582    -110.567
  H      258.767     -48.332    -111.295
  H      256.416     -48.061    -110.933
  H      256.720     -45.338    -112.316
  H      254.366     -46.271    -112.129
  H      254.564     -46.304    -110.370
  P      256.484     -49.626    -113.207
  C      258.377     -51.342    -112.779
  O      258.025     -50.048    -113.233
  O      255.597     -50.169    -114.283
  O      255.998     -50.224    -111.801
  H      255.546     -51.076    -111.943
  H      259.470     -51.439    -112.821
  H      257.938     -52.105    -113.416
  H      258.055     -51.483    -111.739
  H      254.130     -40.844    -109.265
  H      255.230     -42.161    -109.596
  H      254.051     -42.308    -108.315

 3  4  5  6  7  8  9  10  11  12  13  23  28  29  30  31  32 0
 6-311+G(2d,p)
 ****
 33  34 0
 6-311+G(2d,p)
 ****
 1  2  14  15  16  17  18  19  20  21  22  24  25  26  27 0
 3-21G
 ****
 35  36  37  38  39  40  41  42  43  44  45 0
 3-21G
 ****


