%nproc=1
%NoSave
%Mem=1900MB
#P OB98/GEN NMR

erre ene a

0 1
  C     -202.723      -0.051     304.128
  O     -203.468       1.151     304.172
  H     -203.007      -0.611     303.236
  H     -202.939      -0.660     305.011
  H     -201.650       0.166     304.086
  P     -203.135       2.168     305.364
  C     -205.069       3.882     305.630
  O     -203.839       3.562     304.986
  C     -205.886       4.851     304.775
  O     -205.251       6.157     304.797
  C     -206.017       4.433     303.295
  O     -207.317       4.831     302.841
  C     -204.989       5.307     302.608
  O     -205.248       5.471     301.214
  C     -205.123       6.589     303.428
  N     -203.499      10.623     300.887
  C     -204.734       9.994     300.886
  N     -205.683      10.523     300.082
  N     -205.011       8.947     301.614
  C     -203.981       8.553     302.394
  C     -202.715       9.075     302.488
  C     -202.411      10.221     301.654
  O     -201.332      10.809     301.599
  N     -201.940       8.360     303.376
  C     -202.748       7.407     303.814
  N     -203.988       7.481     303.252
  O     -201.574       2.464     305.153
  O     -203.424       1.664     306.743
  H     -204.590       6.118     300.855
  H     -201.039       1.856     305.697
  H     -203.346      11.417     300.297
  H     -202.465       6.646     304.534
  H     -206.017       7.163     303.165
  H     -203.985       4.874     302.716
  H     -205.559      11.363     299.527
  H     -205.874       3.366     303.117
  H     -206.609      10.109     300.101
  H     -206.878       4.966     305.236
  H     -204.849       4.353     306.595
  H     -205.634       2.959     305.802
  P     -208.130       3.815     301.894
  C     -209.534       5.820     300.977
  O     -209.543       4.505     301.524
  O     -208.566       2.651     302.910
  O     -207.346       3.286     300.744
  H     -208.661       1.815     302.425
  H     -210.539       6.134     300.787
  H     -208.981       5.821     300.061
  H     -209.075       6.492     301.672

 6  7  8  9  10  11  12  13  14  15  26  29  33  34 0
 6-311+G(2d,p)
 ****
 36  38  39  40  41 0
 6-311+G(2d,p)
 ****
 1  2  3  4  5  16  17  18  19  20  21  22  23  24  25 0
 3-21G
 ****
 27  28  30  31  32  35  37  42  43  44  45  46  47 0
 3-21G
 ****
 48  49 0
 3-21G
 ****


