%nproc=1
%NoSave
%Mem=1900MB
#P OB98/GEN NMR

erre ene a

0 1
  C       84.973      -5.611     334.878
  O       85.615      -5.360     336.131
  P       84.712      -5.148     337.440
  C       84.465      -2.584     337.268
  O       83.800      -3.840     337.225
  C       83.550      -1.460     336.759
  O       84.183      -0.159     336.944
  C       83.231      -1.594     335.257
  O       81.910      -1.110     334.978
  C       84.221      -0.640     334.618
  O       83.806      -0.249     333.310
  C       84.245       0.483     335.655
  N       86.155       4.900     333.874
  C       84.896       4.394     333.869
  N       84.458       3.219     334.382
  C       85.471       2.549     334.961
  C       86.802       2.938     335.057
  C       87.138       4.172     334.471
  N       88.419       4.671     334.449
  N       87.551       1.985     335.712
  C       86.697       1.012     335.971
  N       85.421       1.321     335.566
  O       85.435      -5.205     338.744
  O       83.638      -6.334     337.327
  H       83.019       0.313     333.411
  H       83.501      -6.726     338.213
  H       84.148       5.011     333.387
  H       86.952       0.069     336.436
  H       83.370       1.134     335.564
  H       85.206      -1.127     334.537
  H       83.327      -2.615     334.864
  H       82.622      -1.462     337.345
  H       85.374      -2.631     336.664
  H       88.581       5.507     333.909
  H       89.177       4.076     334.750
  H       84.806      -2.387     338.295
  P       80.831      -2.221     334.526
  C       81.225      -2.093     331.941
  O       81.374      -2.824     333.140
  O       79.422      -1.717     334.521
  O       81.095      -3.384     335.595
  H       82.026      -3.650     335.689
  H       81.766      -2.604     331.145
  H       81.628      -1.081     332.046
  H       80.166      -2.041     331.662
  H       85.714      -5.728     334.115
  H       84.335      -4.788     334.633
  H       84.390      -6.505     334.949

 3  4  5  6  7  8  9  10  11  12  22  25  29  30  31  32 0
 6-311+G(2d,p)
 ****
 33  36  37 0
 6-311+G(2d,p)
 ****
 1  2  13  14  15  16  17  18  19  20  21  23  24  26 0
 3-21G
 ****
 27  28  34  35  38  39  40  41  42  43  44  45  46  47  48 0
 3-21G
 ****


