%nproc=1
%NoSave
%Mem=1900MB
#P OB98/GEN NMR

erre ene a

0 1
  C      584.083    -120.690      50.348
  O      582.954    -120.753      49.500
  H      583.738    -120.611      51.382
  H      584.698    -119.819      50.116
  H      584.677    -121.602      50.247
  P      583.186    -120.594      47.919
  C      582.832    -123.045      47.201
  O      583.780    -122.007      47.431
  C      583.214    -123.882      45.981
  O      583.127    -123.097      44.773
  C      584.643    -124.401      46.005
  O      584.910    -125.352      47.010
  C      584.864    -124.775      44.547
  O      584.340    -126.064      44.230
  C      584.046    -123.677      43.823
  N      584.901    -122.664      43.210
  C      585.752    -123.112      42.209
  O      585.826    -124.285      41.852
  N      586.556    -122.160      41.642
  C      586.620    -120.848      42.007
  O      587.378    -120.045      41.473
  C      585.723    -120.442      43.100
  C      584.914    -121.354      43.643
  O      584.011    -119.412      47.501
  O      581.708    -120.595      47.311
  H      583.481    -126.142      44.689
  H      581.704    -120.258      46.381
  H      587.172    -122.459      40.902
  H      585.755    -119.410      43.422
  H      584.240    -121.078      44.450
  H      583.431    -124.124      43.030
  H      585.923    -124.782      44.280
  H      585.311    -123.555      46.211
  H      582.494    -124.703      45.894
  H      581.859    -122.575      47.025
  H      582.763    -123.680      48.090
  P      586.365    -125.644      47.589
  C      586.241    -124.249      49.796
  O      586.811    -124.405      48.502
  O      587.365    -126.209      46.632
  O      586.051    -126.780      48.693
  H      586.820    -127.384      48.710
  H      586.649    -123.377      50.263
  H      586.466    -125.110      50.391
  H      585.180    -124.143      49.708

 6  7  8  9  10  11  12  13  14  15  16  26  31  32  33  34  35 0
 6-311+G(2d,p)
 ****
 36  37 0
 6-311+G(2d,p)
 ****
 1  2  3  4  5  17  18  19  20  21  22  23  24  25 0
 3-21G
 ****
 27  28  29  30  38  39  40  41  42  43  44  45 0
 3-21G
 ****


