%nproc=1
%NoSave
%Mem=1900MB
#P OB98/GEN NMR

erre ene a

0 1
  C     -409.177    -798.953    -370.168
  O     -407.813    -799.366    -370.283
  P     -406.889    -798.571    -371.340
  C     -404.661    -798.793    -370.000
  O     -405.680    -797.940    -370.494
  C     -403.819    -798.047    -368.948
  O     -404.534    -797.960    -367.699
  C     -402.465    -798.710    -368.642
  O     -401.504    -798.379    -369.619
  C     -402.173    -798.157    -367.264
  O     -401.617    -796.815    -367.342
  C     -403.571    -798.103    -366.624
  N     -402.351    -800.779    -362.479
  C     -401.693    -799.711    -363.094
  N     -400.562    -799.286    -362.492
  N     -402.085    -799.137    -364.195
  C     -403.216    -799.683    -364.700
  C     -403.970    -800.729    -364.189
  C     -403.547    -801.330    -362.946
  O     -404.161    -802.190    -362.308
  N     -405.047    -801.011    -364.979
  C     -404.995    -800.111    -365.959
  N     -403.897    -799.273    -365.811
  O     -407.778    -797.303    -371.720
  O     -406.462    -799.356    -372.528
  H     -401.581    -796.438    -366.444
  H     -408.253    -797.464    -372.579
  H     -402.013    -801.168    -361.628
  H     -405.686    -800.021    -366.780
  H     -403.699    -797.232    -365.957
  H     -401.447    -798.755    -366.714
  H     -400.168    -799.695    -361.663
  H     -402.609    -799.805    -368.573
  H     -400.059    -798.514    -362.915
  H     -403.659    -797.021    -369.322
  H     -404.012    -799.101    -370.829
  H     -405.111    -799.695    -369.546
  P     -400.557    -799.548    -370.172
  C     -400.790    -798.988    -372.717
  O     -401.053    -799.913    -371.652
  O     -401.018    -800.826    -369.298
  O     -399.104    -799.288    -370.022
  H     -400.237    -801.375    -369.100
  H     -400.682    -799.522    -373.636
  H     -399.871    -798.424    -372.505
  H     -401.632    -798.285    -372.788
  H     -409.673    -799.558    -369.438
  H     -409.664    -799.064    -371.114
  H     -409.215    -797.927    -369.866

 3  4  5  6  7  8  9  10  11  12  23  26  30  31 0
 6-311+G(2d,p)
 ****
 33  35  36  37  38 0
 6-311+G(2d,p)
 ****
 1  2  13  14  15  16  17  18  19  20  21  22  24  25 0
 3-21G
 ****
 27  28  29  32  34  39  40  41  42  43  44  45  46  47  48  49 0
 3-21G
 ****


