%nproc=1
%NoSave
%Mem=1900MB
#P OB98/GEN NMR

erre ene a

0 1
  C      135.961     262.262      47.770
  O      136.436     263.467      47.197
  P      138.020     263.738      47.278
  C      137.990     264.987      44.985
  O      138.302     265.025      46.368
  C      138.761     266.087      44.254
  O      140.145     266.083      44.658
  C      138.761     265.948      42.738
  O      137.559     266.462      42.192
  C      140.002     266.749      42.359
  O      139.715     268.160      42.334
  C      140.966     266.400      43.501
  N      145.642     265.149      42.046
  C      145.021     266.383      42.077
  N      145.774     267.442      41.708
  N      143.779     266.564      42.440
  C      143.145     265.414      42.770
  C      143.645     264.133      42.764
  C      145.035     263.954      42.411
  O      145.657     262.898      42.462
  N      142.695     263.220      43.137
  C      141.632     263.954      43.399
  N      141.858     265.292      43.211
  O      138.637     262.524      46.443
  O      138.578     263.828      48.663
  H      140.551     268.656      42.276
  H      138.946     261.816      47.040
  H      146.606     265.074      41.775
  H      140.686     263.567      43.746
  H      141.598     267.252      43.779
  H      140.371     266.488      41.363
  H      146.729     267.377      41.394
  H      138.897     264.899      42.449
  H      145.334     268.355      41.720
  H      138.331     267.052      44.550
  H      136.916     265.152      44.855
  H      138.248     264.002      44.586
  P      136.676     265.478      41.286
  C      134.785     267.223      41.630
  O      135.426     266.321      40.748
  O      136.032     264.474      42.356
  O      137.446     264.738      40.244
  H      135.968     263.580      41.968
  H      134.366     268.044      41.046
  H      135.479     267.629      42.370
  H      133.974     266.703      42.145
  H      134.899     262.204      47.650
  H      136.204     262.243      48.812
  H      136.421     261.429      47.281

 3  4  5  6  7  8  9  10  11  12  23  26  30  31 0
 6-311+G(2d,p)
 ****
 33  35  36  37  38 0
 6-311+G(2d,p)
 ****
 1  2  13  14  15  16  17  18  19  20  21  22  24  25 0
 3-21G
 ****
 27  28  29  32  34  39  40  41  42  43  44  45  46  47  48  49 0
 3-21G
 ****


