%nproc=1
%NoSave
%Mem=1900MB
#P OB98/GEN NMR

erre ene a

0 1
  C      -53.338     -14.380     -19.353
  O      -54.332     -13.931     -20.252
  H      -53.696     -14.296     -18.324
  H      -53.118     -15.430     -19.566
  H      -52.423     -13.795     -19.479
  P      -54.805     -12.406     -20.083
  C      -52.723     -10.955     -20.593
  O      -53.917     -11.532     -21.101
  C      -52.113     -10.017     -21.632
  O      -51.823     -10.792     -22.826
  C      -53.025      -8.845     -22.033
  O      -52.312      -7.604     -21.956
  C      -53.364      -9.119     -23.486
  O      -53.496      -7.932     -24.259
  C      -52.192      -9.978     -23.947
  N      -54.518      -9.952     -28.483
  C      -53.997      -8.951     -27.742
  N      -53.305      -9.034     -26.588
  C      -53.138     -10.318     -26.225
  C      -53.590     -11.445     -26.890
  C      -54.331     -11.225     -28.064
  N      -54.910     -12.243     -28.791
  N      -53.234     -12.594     -26.210
  C      -52.614     -12.165     -25.128
  N      -52.546     -10.797     -25.087
  O      -54.233     -12.004     -18.641
  O      -56.279     -12.200     -20.166
  H      -53.902      -8.182     -25.109
  H      -54.982     -11.768     -18.061
  H      -54.164      -7.947     -28.123
  H      -52.240     -12.792     -24.328
  H      -51.323      -9.366     -24.218
  H      -54.309      -9.673     -23.534
  H      -53.927      -8.785     -21.417
  H      -51.155      -9.644     -21.249
  H      -52.003     -11.747     -20.361
  H      -55.520     -11.989     -29.551
  H      -54.867     -13.183     -28.421
  H      -52.954     -10.408     -19.673
  P      -52.673      -6.656     -20.707
  C      -51.767      -7.952     -18.646
  O      -51.562      -6.889     -19.568
  O      -53.994      -7.331     -20.106
  O      -52.912      -5.231     -21.082
  H      -54.718      -6.676     -20.076
  H      -50.953      -7.985     -17.953
  H      -51.821      -8.879     -19.177
  H      -52.682      -7.792     -18.115

 6  7  8  9  10  11  12  13  14  15  25  28  32  33  34  35 0
 6-311+G(2d,p)
 ****
 36  39  40 0
 6-311+G(2d,p)
 ****
 1  2  3  4  5  16  17  18  19  20  21  22  23  24 0
 3-21G
 ****
 26  27  29  30  31  37  38  41  42  43  44  45  46  47  48 0
 3-21G
 ****


