%nproc=1
%NoSave
%Mem=1900MB
#P OB98/GEN NMR

erre ene a

0 1
  C     -315.522     185.388    -126.391
  O     -316.933     185.363    -126.409
  H     -315.180     186.322    -126.844
  H     -315.128     184.554    -126.979
  H     -315.139     185.334    -125.369
  P     -317.703     184.242    -125.561
  C     -318.083     182.839    -127.695
  O     -318.685     183.502    -126.593
  C     -318.707     181.455    -127.884
  O     -318.641     180.749    -126.608
  C     -320.188     181.503    -128.315
  O     -320.447     180.388    -129.176
  C     -320.895     181.312    -126.990
  O     -322.222     180.877    -127.159
  C     -319.976     180.301    -126.308
  N     -320.233     180.226    -124.873
  C     -321.394     179.574    -124.474
  O     -322.200     179.077    -125.261
  N     -321.649     179.570    -123.130
  C     -320.931     180.234    -122.180
  O     -321.249     180.261    -121.000
  C     -319.742     180.952    -122.665
  C     -319.446     180.912    -123.968
  O     -318.359     184.709    -124.304
  O     -316.594     183.118    -125.291
  H     -322.676     180.851    -126.298
  H     -316.847     182.569    -124.525
  H     -322.483     179.090    -122.826
  H     -319.158     181.507    -121.941
  H     -318.590     181.445    -124.363
  H     -320.099     179.303    -126.748
  H     -320.922     182.256    -126.435
  H     -320.458     182.435    -128.819
  H     -318.104     180.883    -128.597
  H     -317.009     182.741    -127.491
  H     -318.219     183.441    -128.601
  P     -320.108     180.432    -130.744
  C     -322.126     179.355    -131.912
  O     -320.774     179.179    -131.502
  O     -318.655     180.624    -131.051
  O     -320.948     181.682    -131.295
  H     -320.379     182.220    -131.877
  H     -322.468     178.468    -132.403
  H     -322.189     180.183    -132.587
  H     -322.737     179.547    -131.055

 6  7  8  9  10  11  12  13  14  15  16  26  31  32  33  34  35 0
 6-311+G(2d,p)
 ****
 36  37 0
 6-311+G(2d,p)
 ****
 1  2  3  4  5  17  18  19  20  21  22  23  24  25 0
 3-21G
 ****
 27  28  29  30  38  39  40  41  42  43  44  45 0
 3-21G
 ****


