%nproc=1
%NoSave
%Mem=1900MB
#P OB98/GEN NMR

erre ene a

0 1
  C     -313.049    -192.675    -333.601
  O     -312.551    -194.012    -333.575
  P     -313.234    -195.082    -332.594
  C     -311.087    -195.992    -331.522
  O     -312.210    -196.290    -332.338
  C     -310.472    -197.247    -330.879
  O     -311.254    -197.660    -329.718
  C     -310.389    -198.459    -331.812
  O     -309.185    -199.161    -331.477
  C     -311.613    -199.269    -331.424
  O     -311.527    -200.620    -331.850
  C     -311.611    -199.044    -329.906
  N     -312.901    -199.352    -329.304
  C     -313.288    -200.696    -329.283
  O     -312.602    -201.547    -329.857
  N     -314.458    -201.030    -328.648
  C     -315.237    -200.091    -328.199
  N     -316.378    -200.469    -327.556
  C     -314.944    -198.653    -328.363
  C     -313.762    -198.363    -328.893
  O     -314.624    -195.503    -332.965
  O     -313.233    -194.317    -331.179
  H     -312.300    -201.119    -331.505
  H     -314.040    -194.568    -330.681
  H     -315.665    -197.908    -328.055
  H     -313.449    -197.343    -329.048
  H     -310.842    -199.652    -329.423
  H     -312.508    -198.825    -331.883
  H     -310.357    -198.187    -332.875
  H     -309.469    -196.989    -330.517
  H     -316.584    -201.454    -327.472
  H     -311.388    -195.297    -330.731
  H     -317.012    -199.798    -327.142
  H     -310.336    -195.455    -332.119
  P     -308.126    -199.491    -332.632
  C     -308.100    -202.094    -332.596
  O     -307.427    -200.890    -332.279
  O     -306.946    -198.445    -332.307
  O     -308.598    -199.304    -334.037
  H     -306.445    -198.269    -333.125
  H     -307.376    -202.922    -332.551
  H     -308.522    -202.056    -333.602
  H     -308.897    -202.278    -331.868
  H     -312.485    -192.098    -334.304
  H     -312.957    -192.241    -332.627
  H     -314.079    -192.684    -333.891

 3  4  5  6  7  8  9  10  11  12  13  23  27  28  29  30  32 0
 6-311+G(2d,p)
 ****
 34  35 0
 6-311+G(2d,p)
 ****
 1  2  14  15  16  17  18  19  20  21  22  24  25  26 0
 3-21G
 ****
 31  33  36  37  38  39  40  41  42  43  44  45  46 0
 3-21G
 ****


