%nproc=1
%NoSave
%Mem=1900MB
#P OB98/GEN NMR

erre ene a

0 1
  C      -29.792      45.729       7.430
  O      -29.195      45.358       8.664
  P      -30.057      44.445       9.666
  C      -32.097      44.922      11.217
  O      -30.974      45.449      10.520
  C      -32.319      45.687      12.515
  O      -31.239      45.450      13.443
  C      -32.376      47.200      12.346
  O      -33.652      47.647      11.907
  C      -32.117      47.663      13.773
  O      -33.326      47.567      14.549
  C      -31.085      46.636      14.260
  N      -27.570      49.567      16.429
  C      -28.796      49.148      16.912
  N      -29.162      49.632      18.122
  N      -29.590      48.331      16.271
  C      -29.098      47.938      15.071
  C      -27.901      48.281      14.484
  C      -27.035      49.195      15.200
  O      -25.964      49.641      14.802
  N      -27.749      47.674      13.268
  C      -28.849      46.966      13.112
  N      -29.720      47.125      14.159
  O      -28.973      43.945      10.732
  O      -30.771      43.309       9.018
  H      -33.608      46.630      14.515
  H      -29.319      43.174      11.226
  H      -26.997      50.202      16.957
  H      -29.066      46.336      12.254
  H      -31.264      46.341      15.300
  H      -31.783      48.703      13.827
  H      -28.620      50.314      18.635
  H      -31.569      47.560      11.693
  H      -30.080      49.397      18.471
  H      -33.245      45.314      12.973
  H      -31.918      43.866      11.436
  H      -32.983      44.992      10.574
  P      -33.669      48.907      10.909
  C      -32.882      51.368      11.200
  O      -33.324      50.176      11.826
  O      -35.226      49.079      10.578
  O      -32.843      48.737       9.679
  H      -35.343      49.510       9.710
  H      -32.950      52.188      11.922
  H      -33.500      51.613      10.334
  H      -31.839      51.260      10.892
  H      -29.108      46.331       6.870
  H      -30.685      46.286       7.619
  H      -30.032      44.849       6.871

 3  4  5  6  7  8  9  10  11  12  23  26  30  31 0
 6-311+G(2d,p)
 ****
 33  35  36  37  38 0
 6-311+G(2d,p)
 ****
 1  2  13  14  15  16  17  18  19  20  21  22  24  25 0
 3-21G
 ****
 27  28  29  32  34  39  40  41  42  43  44  45  46  47  48  49 0
 3-21G
 ****


