%nproc=1
%NoSave
%Mem=1900MB
#P OB98/GEN NMR

erre ene a

0 1
  C     -507.831     503.841    -491.939
  O     -506.409     503.855    -492.037
  P     -505.674     505.263    -492.253
  C     -505.362     504.757    -494.832
  O     -505.690     505.659    -493.795
  C     -505.393     505.497    -496.176
  O     -504.474     506.608    -496.160
  C     -505.012     504.619    -497.356
  O     -506.115     503.902    -497.882
  C     -504.431     505.629    -498.332
  O     -505.490     506.342    -498.999
  C     -503.663     506.570    -497.373
  N     -502.274     506.208    -496.999
  C     -501.280     506.172    -497.971
  O     -501.468     506.429    -499.152
  N     -500.027     505.842    -497.541
  C     -499.630     505.703    -496.240
  O     -498.468     505.467    -495.915
  C     -500.684     505.900    -495.239
  C     -501.928     506.119    -495.654
  O     -504.132     504.928    -491.961
  O     -506.180     506.365    -491.370
  H     -506.115     505.677    -499.347
  H     -503.820     505.408    -491.169
  H     -499.311     505.740    -498.243
  H     -500.401     505.848    -494.198
  H     -502.727     506.261    -494.918
  H     -503.626     507.586    -497.771
  H     -503.852     505.137    -499.118
  H     -504.205     503.928    -497.069
  H     -506.409     505.896    -496.327
  H     -506.060     503.921    -494.848
  H     -504.364     504.341    -494.652
  P     -506.193     502.311    -497.698
  C     -505.545     501.817    -500.128
  O     -505.162     501.703    -498.764
  O     -507.563     501.716    -497.703
  O     -505.425     502.058    -496.308
  H     -506.078     501.989    -495.565
  H     -504.704     501.510    -500.761
  H     -505.805     502.856    -500.366
  H     -506.399     501.154    -500.334
  H     -508.169     502.836    -491.797
  H     -508.254     504.236    -492.839
  H     -508.137     504.441    -491.107

 3  4  5  6  7  8  9  10  11  12  13  23  28  29  30  31  32 0
 6-311+G(2d,p)
 ****
 33  34 0
 6-311+G(2d,p)
 ****
 1  2  14  15  16  17  18  19  20  21  22  24  25  26  27 0
 3-21G
 ****
 35  36  37  38  39  40  41  42  43  44  45 0
 3-21G
 ****


