%nproc=1
%NoSave
%Mem=1900MB
#P OB98/GEN NMR

erre ene a

0 1
  C     -402.736     238.653     211.329
  O     -401.335     238.663     211.159
  P     -400.684     239.463     209.933
  C     -400.986     237.677     208.105
  O     -401.397     238.955     208.587
  C     -400.675     237.747     206.611
  O     -401.891     237.938     205.849
  C     -399.766     238.912     206.219
  O     -398.421     238.632     206.562
  C     -400.043     239.009     204.728
  O     -399.264     238.039     204.004
  C     -401.536     238.665     204.651
  N     -404.276     241.460     201.374
  C     -403.412     240.440     201.190
  N     -402.686     239.767     202.112
  C     -402.911     240.272     203.338
  C     -403.731     241.335     203.684
  C     -404.456     241.932     202.639
  N     -405.387     242.932     202.826
  N     -403.663     241.573     205.040
  C     -402.815     240.682     205.503
  N     -402.383     239.831     204.529
  O     -399.191     239.470     209.891
  O     -401.258     240.950     210.100
  H     -399.478     238.144     203.058
  H     -400.514     241.566     210.221
  H     -403.295     240.107     200.164
  H     -402.496     240.605     206.534
  H     -401.765     238.008     203.807
  H     -399.791     239.991     204.316
  H     -400.107     239.829     206.712
  H     -400.227     236.791     206.305
  H     -401.802     236.963     208.279
  H     -405.954     243.181     202.028
  H     -405.756     243.084     203.765
  H     -400.103     237.346     208.660
  P     -397.395     239.842     206.781
  C     -396.269     239.939     204.481
  O     -397.195     240.550     205.359
  O     -396.131     239.491     207.506
  O     -398.247     240.923     207.604
  H     -397.660     241.417     208.200
  H     -395.253     240.198     204.780
  H     -396.443     240.323     203.468
  H     -396.387     238.852     204.476
  H     -402.986     238.073     212.193
  H     -403.197     238.223     210.465
  H     -403.087     239.656     211.458

 3  4  5  6  7  8  9  10  11  12  22  25  29  30  31  32 0
 6-311+G(2d,p)
 ****
 33  36  37 0
 6-311+G(2d,p)
 ****
 1  2  13  14  15  16  17  18  19  20  21  23  24  26 0
 3-21G
 ****
 27  28  34  35  38  39  40  41  42  43  44  45  46  47  48 0
 3-21G
 ****


