%nproc=1
%NoSave
%Mem=1900MB
#P OB98/GEN NMR

erre ene a

0 1
  C     -227.636     838.802    -456.563
  O     -226.243     838.990    -456.716
  P     -225.305     837.780    -457.185
  C     -225.949     838.184    -459.649
  O     -225.934     837.259    -458.564
  C     -224.934     837.785    -460.722
  O     -223.604     838.198    -460.338
  C     -224.846     836.285    -460.965
  O     -225.944     835.849    -461.750
  C     -223.494     836.180    -461.653
  O     -223.593     836.480    -463.054
  C     -222.671     837.261    -460.918
  N     -221.778     836.700    -459.919
  C     -220.624     836.081    -460.411
  O     -220.424     836.010    -461.622
  N     -219.738     835.524    -459.522
  C     -220.008     835.549    -458.245
  N     -219.099     834.966    -457.415
  C     -221.228     836.161    -457.692
  C     -222.062     836.707    -458.573
  O     -225.055     836.731    -456.155
  O     -223.967     838.526    -457.668
  H     -222.768     836.156    -463.462
  H     -223.440     838.851    -456.895
  H     -221.413     836.149    -456.627
  H     -222.986     837.175    -458.250
  H     -222.065     837.837    -461.636
  H     -223.067     835.175    -461.569
  H     -224.817     835.753    -460.009
  H     -225.197     838.308    -461.651
  H     -218.292     834.530    -457.837
  H     -225.691     839.175    -459.255
  H     -219.227     834.902    -456.420
  H     -226.956     838.235    -460.070
  P     -226.462     834.335    -461.626
  C     -227.652     834.695    -459.382
  O     -226.626     834.003    -460.069
  O     -225.688     833.329    -462.411
  O     -227.973     834.418    -462.140
  H     -228.145     833.661    -462.736
  H     -227.882     834.159    -458.457
  H     -228.561     834.754    -459.992
  H     -227.313     835.704    -459.132
  H     -228.087     839.719    -456.246
  H     -227.815     838.044    -455.829
  H     -228.060     838.501    -457.498

 3  4  5  6  7  8  9  10  11  12  13  23  27  28  29  30  32 0
 6-311+G(2d,p)
 ****
 34  35 0
 6-311+G(2d,p)
 ****
 1  2  14  15  16  17  18  19  20  21  22  24  25  26 0
 3-21G
 ****
 31  33  36  37  38  39  40  41  42  43  44  45  46 0
 3-21G
 ****


