%nproc=1
%NoSave
%Mem=1900MB
#P OB98/GEN NMR

erre ene a

0 1
  C     -126.567    -153.005    -132.907
  O     -125.192    -153.246    -132.702
  H     -127.132    -153.865    -132.538
  H     -126.776    -152.882    -133.973
  H     -126.891    -152.114    -132.360
  P     -124.142    -152.080    -133.036
  C     -122.792    -151.658    -135.188
  O     -124.064    -151.969    -134.634
  C     -122.959    -151.163    -136.624
  O     -123.968    -150.131    -136.685
  C     -121.695    -150.546    -137.216
  O     -120.765    -151.547    -137.573
  C     -122.287    -149.764    -138.378
  O     -122.567    -150.628    -139.492
  C     -123.600    -149.234    -137.760
  N     -123.487    -147.855    -137.282
  C     -123.399    -146.871    -138.260
  O     -123.407    -147.116    -139.465
  N     -123.250    -145.586    -137.803
  C     -123.096    -145.218    -136.498
  O     -122.749    -144.094    -136.150
  C     -123.276    -146.288    -135.507
  C     -123.444    -147.542    -135.936
  O     -122.825    -152.174    -132.341
  O     -124.927    -150.743    -132.626
  H     -124.609    -150.437    -131.752
  H     -123.178    -150.136    -140.076
  H     -123.136    -144.871    -138.506
  H     -123.223    -146.026    -134.456
  H     -123.549    -148.351    -135.223
  H     -124.414    -149.274    -138.496
  H     -121.614    -148.984    -138.741
  H     -121.252    -149.839    -136.504
  H     -123.303    -152.007    -137.238
  H     -122.176    -152.565    -135.186
  H     -122.306    -150.897    -134.570
  P     -119.201    -151.224    -137.697
  C     -117.729    -149.645    -139.080
  O     -118.983    -150.312    -138.996
  O     -118.300    -152.410    -137.614
  O     -118.917    -150.204    -136.491
  H     -118.173    -150.544    -135.957
  H     -117.691    -149.068    -139.981
  H     -116.940    -150.368    -139.086
  H     -117.612    -148.997    -138.236

 6  7  8  9  10  11  12  13  14  15  16  27  31  32  33  34  35 0
 6-311+G(2d,p)
 ****
 36  37 0
 6-311+G(2d,p)
 ****
 1  2  3  4  5  17  18  19  20  21  22  23  24  25 0
 3-21G
 ****
 26  28  29  30  38  39  40  41  42  43  44  45 0
 3-21G
 ****


