%nproc=1
%NoSave
%Mem=1900MB
#P OB98/GEN NMR

erre ene a

0 1
  C     -308.133     -66.351      -7.045
  O     -308.596     -65.725      -5.865
  H     -308.403     -65.728      -7.900
  H     -308.607     -67.329      -7.161
  H     -307.046     -66.465      -7.024
  P     -308.174     -66.339      -4.447
  C     -310.431     -67.532      -4.055
  O     -309.031     -67.679      -4.249
  C     -311.131     -68.897      -4.093
  O     -310.908     -69.570      -2.817
  C     -312.657     -68.819      -4.304
  O     -313.046     -70.013      -4.999
  C     -313.144     -68.831      -2.866
  O     -314.529     -69.038      -2.765
  C     -312.212     -69.907      -2.296
  N     -312.177     -69.996      -0.840
  C     -313.360     -70.321      -0.184
  O     -314.435     -70.543      -0.741
  N     -313.281     -70.386       1.184
  C     -312.161     -70.176       1.935
  O     -312.145     -70.279       3.156
  C     -310.947     -69.830       1.185
  C     -311.006     -69.762      -0.148
  O     -308.203     -65.393      -3.295
  O     -306.695     -66.902      -4.707
  H     -306.039     -66.280      -4.340
  H     -314.757     -69.891      -3.195
  H     -314.128     -70.623       1.677
  H     -310.044     -69.646       1.752
  H     -310.122     -69.519      -0.727
  H     -312.478     -70.889      -2.707
  H     -312.952     -67.860      -2.399
  H     -312.965     -67.946      -4.882
  H     -310.655     -69.516      -4.866
  H     -310.821     -66.894      -4.856
  H     -310.611     -67.046      -3.090
  P     -313.149     -70.113      -6.597
  C     -315.719     -70.069      -6.909
  O     -314.493     -69.363      -7.057
  O     -313.028     -71.507      -7.127
  O     -311.972     -69.180      -7.158
  H     -311.701     -69.491      -8.041
  H     -316.527     -69.457      -7.251
  H     -315.868     -70.312      -5.878
  H     -315.684     -70.969      -7.486

 6  7  8  9  10  11  12  13  14  15  16  27  31  32  33  34  35 0
 6-311+G(2d,p)
 ****
 36  37 0
 6-311+G(2d,p)
 ****
 1  2  3  4  5  17  18  19  20  21  22  23  24  25 0
 3-21G
 ****
 26  28  29  30  38  39  40  41  42  43  44  45 0
 3-21G
 ****


