%nproc=1
%NoSave
%Mem=1900MB
#P OB98/GEN NMR

erre ene a

0 1
  C     -521.319    -648.398    -166.777
  O     -521.015    -647.295    -167.628
  P     -521.824    -645.934    -167.370
  C     -520.136    -644.060    -167.959
  O     -521.264    -644.816    -168.378
  C     -518.828    -644.700    -168.432
  O     -518.842    -644.911    -169.873
  C     -517.587    -643.866    -168.121
  O     -516.502    -644.771    -167.855
  C     -517.315    -643.151    -169.427
  O     -515.967    -642.680    -169.495
  C     -517.681    -644.255    -170.414
  N     -515.729    -641.657    -174.356
  C     -515.206    -642.026    -173.168
  N     -515.798    -642.697    -172.160
  C     -517.061    -643.032    -172.492
  C     -517.733    -642.716    -173.665
  C     -517.009    -641.991    -174.624
  N     -517.555    -641.587    -175.826
  N     -519.027    -643.189    -173.622
  C     -519.134    -643.778    -172.443
  N     -517.961    -643.734    -171.743
  O     -521.286    -645.455    -165.940
  O     -523.309    -646.103    -167.364
  H     -515.372    -643.418    -169.242
  H     -521.981    -645.583    -165.263
  H     -514.168    -641.733    -173.001
  H     -520.024    -644.237    -172.058
  H     -516.883    -645.001    -170.530
  H     -517.990    -642.294    -169.531
  H     -517.700    -643.173    -167.277
  H     -518.734    -645.690    -167.958
  H     -520.120    -643.978    -166.870
  H     -516.980    -641.041    -176.448
  H     -518.521    -641.789    -176.023
  H     -520.236    -643.034    -168.338
  P     -515.766    -644.605    -166.440
  C     -514.566    -646.912    -166.470
  O     -514.441    -645.498    -166.518
  O     -516.710    -645.417    -165.422
  O     -515.566    -643.190    -166.016
  H     -516.603    -645.066    -164.520
  H     -513.868    -647.351    -167.187
  H     -515.583    -647.239    -166.721
  H     -514.312    -647.253    -165.471
  H     -520.715    -649.238    -167.052
  H     -522.353    -648.653    -166.880
  H     -521.117    -648.131    -165.761

 3  4  5  6  7  8  9  10  11  12  22  25  29  30  31  32 0
 6-311+G(2d,p)
 ****
 33  36  37 0
 6-311+G(2d,p)
 ****
 1  2  13  14  15  16  17  18  19  20  21  23  24  26 0
 3-21G
 ****
 27  28  34  35  38  39  40  41  42  43  44  45  46  47  48 0
 3-21G
 ****


