%nproc=1
%NoSave
%Mem=1900MB
#P OB98/GEN NMR

erre ene a

0 1
  C      166.846     174.700     198.336
  O      167.216     175.645     199.349
  P      166.141     176.747     199.790
  C      166.176     176.031     202.290
  O      166.348     177.075     201.350
  C      167.304     176.058     203.336
  O      168.567     175.654     202.764
  C      167.549     177.439     203.922
  O      166.631     177.740     204.972
  C      168.958     177.263     204.492
  O      168.888     176.581     205.759
  C      169.621     176.360     203.439
  N      174.327     177.427     201.688
  C      173.907     176.666     202.720
  N      172.641     176.457     203.134
  C      171.764     177.098     202.346
  C      172.041     177.907     201.256
  C      173.406     178.062     200.925
  N      173.835     178.834     199.867
  N      170.881     178.404     200.697
  C      169.914     177.897     201.441
  N      170.394     177.112     202.448
  O      164.759     175.933     199.767
  O      166.088     177.939     198.883
  H      169.818     176.440     206.051
  H      164.030     176.524     199.484
  H      174.677     176.175     203.299
  H      168.856     178.071     201.270
  H      170.296     175.628     203.891
  H      169.456     178.216     204.678
  H      167.561     178.209     203.136
  H      167.039     175.349     204.141
  H      166.164     175.057     201.790
  H      174.825     178.876     199.671
  H      173.140     179.290     199.290
  H      165.193     176.138     202.775
  P      165.357     178.626     204.596
  C      163.956     178.103     206.717
  O      164.696     179.068     205.979
  O      164.330     177.559     203.992
  O      165.647     179.725     203.622
  H      163.759     177.982     203.320
  H      163.843     178.460     207.747
  H      164.446     177.130     206.719
  H      162.951     178.010     206.261
  H      167.664     174.035     198.153
  H      166.601     175.221     197.434
  H      165.997     174.139     198.665

 3  4  5  6  7  8  9  10  11  12  22  25  29  30  31  32 0
 6-311+G(2d,p)
 ****
 33  36  37 0
 6-311+G(2d,p)
 ****
 1  2  13  14  15  16  17  18  19  20  21  23  24  26 0
 3-21G
 ****
 27  28  34  35  38  39  40  41  42  43  44  45  46  47  48 0
 3-21G
 ****


