%nproc=1
%NoSave
%Mem=1900MB
#P OB98/GEN NMR

erre ene a

0 1
  C      474.651     221.259     304.408
  O      474.869     222.409     305.205
  H      475.615     220.778     304.223
  H      474.205     221.542     303.454
  H      474.001     220.554     304.933
  P      473.571     223.279     305.570
  C      473.365     224.146     303.137
  O      473.522     224.480     304.508
  C      473.722     225.336     302.256
  O      472.680     226.336     302.298
  C      475.020     226.043     302.637
  O      476.143     225.369     302.092
  C      474.802     227.420     302.024
  O      475.092     227.422     300.609
  C      473.304     227.649     302.271
  N      469.893     230.513     304.656
  C      469.841     229.908     303.417
  N      468.731     230.146     302.677
  N      470.791     229.150     302.935
  C      471.854     229.031     303.766
  C      472.013     229.562     305.028
  C      470.939     230.380     305.560
  O      470.898     230.890     306.670
  N      473.216     229.199     305.567
  C      473.797     228.480     304.631
  N      473.014     228.359     303.509
  O      473.986     224.013     306.938
  O      472.304     222.505     305.731
  H      474.529     226.758     300.171
  H      473.187     224.151     307.479
  H      469.118     231.077     304.974
  H      474.777     228.028     304.711
  H      472.833     228.219     301.465
  H      475.453     228.169     302.478
  H      468.151     230.964     302.837
  H      475.103     226.138     303.729
  H      468.695     229.727     301.757
  H      473.776     224.971     301.220
  H      472.326     223.859     302.953
  H      474.018     223.295     302.899
  P      477.368     225.045     303.084
  C      478.300     227.477     303.013
  O      478.529     226.099     302.729
  O      477.943     223.665     302.517
  O      476.992     224.944     304.516
  H      478.500     223.233     303.184
  H      479.157     228.048     302.723
  H      478.127     227.601     304.062
  H      477.444     227.816     302.468

 6  7  8  9  10  11  12  13  14  15  26  29  33  34 0
 6-311+G(2d,p)
 ****
 36  38  39  40  41 0
 6-311+G(2d,p)
 ****
 1  2  3  4  5  16  17  18  19  20  21  22  23  24  25 0
 3-21G
 ****
 27  28  30  31  32  35  37  42  43  44  45  46  47 0
 3-21G
 ****
 48  49 0
 3-21G
 ****


