%nproc=1
%NoSave
%Mem=1900MB
#P OB98/GEN NMR

erre ene a

0 1
  C      -92.372    -225.987      43.023
  O      -91.825    -225.378      41.870
  H      -93.462    -225.929      42.968
  H      -92.037    -225.452      43.917
  H      -92.076    -227.037      43.084
  P      -90.244    -225.537      41.652
  C      -89.521    -223.807      43.448
  O      -89.584    -224.132      42.067
  C      -88.397    -222.806      43.701
  O      -87.115    -223.412      43.425
  C      -88.469    -221.548      42.841
  O      -89.364    -220.588      43.384
  C      -87.028    -221.068      42.930
  O      -86.805    -220.432      44.204
  C      -86.252    -222.388      42.851
  N      -83.700    -221.033      38.683
  C      -83.871    -220.361      39.878
  N      -83.287    -219.147      39.971
  N      -84.558    -220.829      40.887
  C      -85.095    -222.049      40.647
  C      -84.996    -222.817      39.508
  C      -84.228    -222.290      38.403
  O      -84.025    -222.854      37.331
  N      -85.667    -224.003      39.643
  C      -86.190    -223.947      40.851
  N      -85.878    -222.776      41.501
  O      -90.088    -225.557      40.056
  O      -89.630    -226.745      42.272
  H      -85.969    -219.938      44.130
  H      -89.366    -226.169      39.818
  H      -83.173    -220.623      37.933
  H      -86.796    -224.722      41.302
  H      -85.330    -222.366      43.445
  H      -86.782    -220.336      42.158
  H      -82.786    -218.707      39.214
  H      -88.711    -221.788      41.798
  H      -83.370    -218.647      40.849
  H      -88.411    -222.544      44.769
  H      -89.334    -224.717      44.026
  H      -90.482    -223.379      43.756
  P      -90.460    -219.950      42.394
  C      -88.578    -218.338      41.614
  O      -89.924    -218.475      42.053
  O      -91.705    -219.678      43.365
  O      -90.829    -220.802      41.230
  H      -92.531    -219.638      42.844
  H      -88.367    -217.306      41.427
  H      -88.437    -218.899      40.714
  H      -87.917    -218.706      42.371

 6  7  8  9  10  11  12  13  14  15  26  29  33  34 0
 6-311+G(2d,p)
 ****
 36  38  39  40  41 0
 6-311+G(2d,p)
 ****
 1  2  3  4  5  16  17  18  19  20  21  22  23  24  25 0
 3-21G
 ****
 27  28  30  31  32  35  37  42  43  44  45  46  47 0
 3-21G
 ****
 48  49 0
 3-21G
 ****


