%nproc=1
%NoSave
%Mem=1900MB
#P OB98/GEN NMR

erre ene a

0 1
  C      312.823     131.887    -195.759
  O      312.125     130.684    -195.511
  H      312.365     132.418    -196.597
  H      312.767     132.517    -194.867
  H      313.878     131.683    -195.980
  P      312.233     129.539    -196.629
  C      310.259     130.536    -197.997
  O      311.637     130.187    -197.975
  C      309.646     130.202    -199.359
  O      310.286     131.025    -200.374
  C      309.827     128.733    -199.769
  O      308.643     128.289    -200.433
  C      310.985     128.785    -200.754
  O      310.969     127.690    -201.663
  C      310.769     130.146    -201.406
  N      314.087     129.649    -205.265
  C      312.903     129.052    -205.006
  N      312.076     129.246    -203.957
  C      312.559     130.204    -203.144
  C      313.750     130.898    -203.271
  C      314.541     130.582    -204.388
  N      315.769     131.156    -204.637
  N      313.920     131.774    -202.214
  C      312.843     131.607    -201.464
  N      311.997     130.667    -201.983
  O      311.097     128.503    -196.174
  O      313.568     128.886    -196.763
  H      311.668     127.836    -202.337
  H      311.436     127.949    -195.445
  H      312.577     128.317    -205.739
  H      312.636     132.134    -200.542
  H      310.025     130.111    -202.214
  H      311.936     128.762    -200.207
  H      310.036     128.081    -198.921
  H      308.585     130.483    -199.346
  H      310.160     131.611    -197.804
  H      316.295     130.829    -205.434
  H      316.152     131.807    -203.967
  H      309.733     129.981    -197.209
  P      307.637     127.372    -199.578
  C      308.931     125.230    -200.267
  O      308.391     125.999    -199.202
  O      306.539     126.921    -200.652
  O      307.012     128.082    -198.424
  H      305.645     127.077    -200.299
  H      309.399     124.352    -199.872
  H      309.656     125.813    -200.796
  H      308.145     124.945    -200.935

 6  7  8  9  10  11  12  13  14  15  25  28  32  33  34  35 0
 6-311+G(2d,p)
 ****
 36  39  40 0
 6-311+G(2d,p)
 ****
 1  2  3  4  5  16  17  18  19  20  21  22  23  24 0
 3-21G
 ****
 26  27  29  30  31  37  38  41  42  43  44  45  46  47 0
 3-21G
 ****
 48 0
 3-21G
 ****


