%nproc=1
%NoSave
%Mem=1900MB
#P OB98/GEN NMR

erre ene a

0 1
  C     -904.899     -54.136     -73.752
  O     -905.393     -52.840     -73.472
  H     -904.218     -54.072     -74.604
  H     -905.724     -54.810     -74.007
  H     -904.355     -54.523     -72.888
  P     -906.451     -52.721     -72.271
  C     -908.334     -51.328     -73.346
  O     -907.179     -51.309     -72.518
  C     -908.315     -50.150     -74.319
  O     -908.157     -48.925     -73.562
  C     -907.169     -50.216     -75.338
  O     -907.632     -49.735     -76.598
  C     -906.137     -49.254     -74.775
  O     -905.279     -48.724     -75.780
  C     -907.025     -48.212     -74.088
  N     -902.821     -45.540     -72.985
  C     -903.331     -45.980     -74.157
  N     -904.467     -46.674     -74.361
  C     -905.128     -46.864     -73.199
  C     -904.731     -46.480     -71.931
  C     -903.510     -45.793     -71.848
  N     -902.968     -45.365     -70.657
  N     -905.649     -46.899     -70.992
  C     -906.594     -47.517     -71.682
  N     -906.311     -47.533     -73.019
  O     -905.898     -52.922     -70.898
  O     -907.573     -53.768     -72.716
  H     -904.891     -49.474     -76.279
  H     -907.778     -53.688     -73.666
  H     -902.739     -45.749     -75.045
  H     -907.484     -47.968     -71.261
  H     -907.382     -47.446     -74.784
  H     -905.515     -49.776     -74.040
  H     -906.771     -51.224     -75.446
  H     -909.286     -50.094     -74.825
  H     -909.240     -51.281     -72.733
  H     -902.091     -44.864     -70.681
  H     -903.475     -45.526     -69.791
  H     -908.339     -52.276     -73.899
  P     -907.143     -50.488     -77.921
  C     -906.995     -48.265     -79.241
  O     -907.529     -49.589     -79.200
  O     -907.493     -51.933     -78.031
  O     -905.541     -50.300     -77.858
  H     -905.119     -51.110     -78.193
  H     -907.323     -47.776     -80.134
  H     -905.926     -48.311     -79.232
  H     -907.336     -47.716     -78.388

 6  7  8  9  10  11  12  13  14  15  25  28  32  33  34  35 0
 6-311+G(2d,p)
 ****
 36  39  40 0
 6-311+G(2d,p)
 ****
 1  2  3  4  5  16  17  18  19  20  21  22  23  24 0
 3-21G
 ****
 26  27  29  30  31  37  38  41  42  43  44  45  46  47 0
 3-21G
 ****
 48 0
 3-21G
 ****


