%nproc=1
%NoSave
%Mem=1900MB
#P OB98/GEN NMR

erre ene a

0 1
  C     -879.969    -891.370    -228.154
  O     -879.640    -890.980    -229.458
  P     -880.428    -891.610    -230.716
  C     -880.969    -894.050    -231.568
  O     -880.449    -893.200    -230.538
  C     -879.949    -895.170    -231.823
  O     -879.450    -895.690    -230.573
  C     -880.611    -896.330    -232.588
  O     -880.405    -896.180    -233.987
  C     -879.932    -897.540    -231.982
  O     -878.625    -897.740    -232.609
  C     -879.757    -897.100    -230.504
  N     -880.894    -897.300    -229.581
  C     -881.017    -898.460    -228.865
  O     -880.191    -899.370    -228.870
  N     -882.158    -898.570    -228.093
  C     -883.133    -897.610    -227.965
  O     -884.244    -897.810    -227.487
  C     -882.817    -896.300    -228.559
  C     -881.760    -896.220    -229.357
  O     -879.422    -891.380    -231.937
  O     -881.790    -891.030    -230.985
  H     -878.783    -897.990    -233.519
  H     -879.677    -890.600    -232.453
  H     -882.328    -899.460    -227.653
  H     -883.509    -895.470    -228.358
  H     -881.516    -895.250    -229.821
  H     -878.879    -897.610    -230.051
  H     -880.495    -898.440    -232.171
  H     -881.678    -896.360    -232.367
  H     -879.129    -894.760    -232.407
  H     -881.168    -893.470    -232.468
  H     -881.933    -894.470    -231.228
  P     -881.562    -896.650    -235.008
  C     -882.468    -898.940    -235.725
  O     -881.756    -898.210    -234.744
  O     -881.339    -896.240    -236.443
  O     -882.886    -895.970    -234.391
  H     -883.081    -895.130    -234.862
  H     -882.390    -900.000    -235.528
  H     -882.076    -898.710    -236.721
  H     -883.534    -898.620    -235.675
  H     -879.345    -890.850    -227.458
  H     -879.820    -892.424    -228.049
  H     -880.994    -891.134    -227.959

 3  4  5  6  7  8  9  10  11  12  13  23  28  29  30  31  32 0
 6-311+G(2d,p)
 ****
 33  34 0
 6-311+G(2d,p)
 ****
 1  2  14  15  16  17  18  19  20  21  22  24  25  26  27 0
 3-21G
 ****
 35  36  37  38  39  40  41  42  43  44  45 0
 3-21G
 ****


