%nproc=1
%NoSave
%Mem=1900MB
#P OB98/GEN NMR

erre ene a

0 1
  C       37.318    -107.301     -24.731
  O       37.569    -106.475     -25.848
  H       36.484    -106.880     -24.164
  H       38.198    -107.333     -24.085
  H       37.050    -108.314     -25.043
  P       38.559    -107.000     -26.993
  C       37.139    -105.913     -28.851
  O       38.413    -105.986     -28.228
  C       36.133    -105.197     -27.946
  O       36.589    -103.824     -27.741
  C       34.707    -105.122     -28.529
  O       33.793    -105.156     -27.425
  C       34.729    -103.751     -29.177
  O       33.439    -103.307     -29.508
  C       35.490    -102.966     -28.106
  N       35.959    -101.663     -28.560
  C       35.256    -100.545     -28.127
  O       34.286    -100.594     -27.373
  N       35.702     -99.341     -28.604
  C       36.751     -99.155     -29.454
  O       37.123     -98.051     -29.833
  C       37.437    -100.378     -29.900
  C       37.017    -101.558     -29.439
  O       38.436    -108.444     -27.345
  O       40.015    -106.656     -26.420
  H       40.398    -107.451     -26.005
  H       33.479    -102.425     -29.935
  H       35.204     -98.519     -28.300
  H       38.261    -100.266     -30.592
  H       37.497    -102.481     -29.748
  H       34.874    -102.834     -27.211
  H       35.299    -103.783     -30.111
  H       34.483    -105.942     -29.216
  H       36.133    -105.681     -26.962
  H       36.797    -106.934     -29.050
  H       37.233    -105.378     -29.802
  P       32.764    -106.361     -27.170
  C       32.332    -105.642     -24.732
  O       31.753    -105.957     -25.991
  O       33.430    -107.681     -26.952
  O       31.833    -106.411     -28.472
  H       31.610    -107.339     -28.671
  H       31.559    -105.391     -24.036
  H       32.996    -104.810     -24.843
  H       32.878    -106.488     -24.369

 6  7  8  9  10  11  12  13  14  15  16  27  31  32  33  34  35 0
 6-311+G(2d,p)
 ****
 36  37 0
 6-311+G(2d,p)
 ****
 1  2  3  4  5  17  18  19  20  21  22  23  24  25 0
 3-21G
 ****
 26  28  29  30  38  39  40  41  42  43  44  45 0
 3-21G
 ****


