%nproc=1
%NoSave
%Mem=1900MB
#P OB98/GEN NMR

erre ene a

0 1
  C      384.322     149.800     -96.520
  O      384.211     149.411     -97.890
  P      384.782     150.409     -99.007
  C      387.239     149.752     -99.535
  O      385.865     149.618     -99.879
  C      388.018     148.496     -99.943
  O      387.466     147.300     -99.342
  C      388.023     148.248    -101.447
  O      389.019     149.017    -102.108
  C      388.390     146.770    -101.497
  O      389.814     146.615    -101.328
  C      387.640     146.211    -100.283
  N      385.132     141.943    -101.341
  C      386.464     142.140    -101.027
  N      387.237     141.032    -100.971
  N      386.992     143.308    -100.775
  C      386.090     144.319    -100.847
  C      384.747     144.257    -101.148
  C      384.186     142.955    -101.439
  O      383.014     142.724    -101.736
  N      384.168     145.499    -101.126
  C      385.153     146.316    -100.793
  N      386.341     145.653    -100.624
  O      385.675     151.423     -98.154
  O      383.721     151.123     -99.786
  H      390.008     145.665    -101.451
  H      385.713     152.293     -98.600
  H      384.783     141.022    -101.527
  H      385.046     147.384    -100.647
  H      388.208     145.424     -99.766
  H      388.134     146.310    -102.453
  H      386.893     140.097    -101.104
  H      387.024     148.399    -101.882
  H      388.212     141.153    -100.710
  H      389.057     148.612     -99.594
  H      387.351     149.917     -98.458
  H      387.642     150.648    -100.014
  P      388.873     149.231    -103.693
  C      388.312     151.756    -103.450
  O      389.206     150.780    -103.955
  O      387.292     149.121    -103.918
  O      389.621     148.250    -104.527
  H      387.108     148.753    -104.801
  H      388.775     152.745    -103.580
  H      388.131     151.597    -102.380
  H      387.369     151.733    -103.997
  H      383.900     149.038     -95.898
  H      383.795     150.718     -96.366
  H      385.354     149.935     -96.270

 3  4  5  6  7  8  9  10  11  12  23  26  30  31 0
 6-311+G(2d,p)
 ****
 33  35  36  37  38 0
 6-311+G(2d,p)
 ****
 1  2  13  14  15  16  17  18  19  20  21  22  24  25 0
 3-21G
 ****
 27  28  29  32  34  39  40  41  42  43  44  45  46  47  48  49 0
 3-21G
 ****


