%nproc=1
%NoSave
%Mem=1900MB
#P OB98/GEN NMR

erre ene a

0 1
  C      132.687      76.140     267.818
  O      132.929      76.630     266.511
  P      133.969      77.827     266.264
  C      133.800      80.388     266.463
  O      133.334      79.134     266.949
  C      133.328      81.527     267.364
  O      133.662      81.210     268.736
  C      133.971      82.871     267.036
  O      133.007      83.909     267.241
  C      135.068      83.027     268.071
  O      135.375      84.412     268.306
  C      134.461      82.284     269.267
  N      136.055      81.806     274.130
  C      134.971      82.406     273.596
  N      134.621      82.519     272.293
  C      135.506      81.873     271.514
  C      136.658      81.212     271.912
  C      136.925      81.193     273.295
  N      138.031      80.567     273.837
  N      137.332      80.699     270.821
  C      136.590      81.026     269.788
  N      135.470      81.728     270.154
  O      134.393      78.016     264.848
  O      135.208      77.486     267.216
  H      135.721      84.778     267.464
  H      136.049      77.718     266.776
  H      134.288      82.865     274.311
  H      136.819      80.795     268.756
  H      133.803      82.940     269.856
  H      135.982      82.535     267.717
  H      134.358      82.917     266.013
  H      132.232      81.595     267.300
  H      133.398      80.535     265.455
  H      138.075      80.501     274.843
  H      138.580      79.967     273.238
  H      134.896      80.372     266.403
  P      133.192      85.230     266.336
  C      135.135      86.949     266.085
  O      134.638      85.796     266.732
  O      132.033      86.162     266.462
  O      133.376      84.584     264.877
  H      133.718      83.666     264.934
  H      136.142      87.156     266.461
  H      134.500      87.812     266.309
  H      135.183      86.792     265.005
  H      131.968      75.349     267.775
  H      132.310      76.931     268.431
  H      133.600      75.770     268.235

 3  4  5  6  7  8  9  10  11  12  22  25  29  30  31  32 0
 6-311+G(2d,p)
 ****
 33  36  37 0
 6-311+G(2d,p)
 ****
 1  2  13  14  15  16  17  18  19  20  21  23  24  26 0
 3-21G
 ****
 27  28  34  35  38  39  40  41  42  43  44  45  46  47  48 0
 3-21G
 ****


