%nproc=1
%NoSave
%Mem=1900MB
#P OB98/GEN NMR

erre ene a

0 1
  C     -318.554    -754.318    -118.833
  O     -318.426    -755.737    -118.843
  P     -317.842    -756.514    -117.589
  C     -319.643    -758.338    -117.725
  O     -318.251    -758.069    -117.728
  C     -319.929    -759.827    -118.023
  O     -319.525    -760.119    -119.386
  C     -319.188    -760.786    -117.091
  O     -320.088    -761.883    -116.827
  C     -318.024    -761.257    -117.938
  O     -317.483    -762.504    -117.494
  C     -318.642    -761.266    -119.327
  N     -317.659    -761.246    -120.393
  C     -316.841    -762.370    -120.538
  O     -316.886    -763.283    -119.703
  N     -315.992    -762.430    -121.612
  C     -315.838    -761.394    -122.366
  N     -315.043    -761.524    -123.472
  C     -316.505    -760.096    -122.104
  C     -317.416    -760.099    -121.132
  O     -318.154    -755.915    -116.258
  O     -316.248    -756.545    -117.836
  H     -315.791    -756.186    -117.041
  H     -316.609    -762.632    -117.908
  H     -316.243    -759.213    -122.669
  H     -317.978    -759.210    -120.868
  H     -319.275    -762.157    -119.460
  H     -317.215    -760.510    -117.895
  H     -318.888    -760.334    -116.150
  H     -321.003    -759.992    -117.951
  H     -314.645    -762.433    -123.639
  H     -320.106    -757.720    -118.503
  H     -315.106    -760.876    -124.257
  H     -320.087    -758.043    -116.773
  P     -320.009    -762.599    -115.393
  C     -322.387    -761.816    -114.654
  O     -321.513    -762.910    -114.911
  O     -319.608    -761.352    -114.437
  O     -318.996    -763.686    -115.225
  H     -319.157    -761.702    -113.640
  H     -323.324    -762.234    -114.289
  H     -322.572    -761.278    -115.580
  H     -321.960    -761.164    -113.923
  H     -318.965    -753.990    -119.765
  H     -317.591    -753.874    -118.692
  H     -319.203    -754.024    -118.034

 3  4  5  6  7  8  9  10  11  12  13  24  27  28  29  30  32 0
 6-311+G(2d,p)
 ****
 34  35 0
 6-311+G(2d,p)
 ****
 1  2  14  15  16  17  18  19  20  21  22  23  25  26 0
 3-21G
 ****
 31  33  36  37  38  39  40  41  42  43  44  45  46 0
 3-21G
 ****


