%nproc=1
%NoSave
%Mem=1900MB
#P OB98/GEN NMR

erre ene a

0 1
  C     -767.061    -666.227    1592.678
  O     -768.232    -665.611    1593.221
  P     -768.249    -664.370    1594.211
  C     -769.206    -665.509    1596.401
  O     -769.384    -664.622    1595.301
  C     -770.562    -665.914    1597.005
  O     -771.236    -664.748    1597.534
  C     -771.515    -666.554    1595.969
  O     -772.212    -667.685    1596.437
  C     -772.358    -665.355    1595.502
  O     -773.567    -665.717    1594.879
  C     -772.456    -664.548    1596.803
  N     -775.782    -660.938    1595.336
  C     -775.892    -662.324    1595.258
  N     -777.042    -662.797    1594.714
  N     -774.961    -663.155    1595.684
  C     -773.847    -662.532    1596.108
  C     -773.614    -661.177    1596.210
  C     -774.663    -660.278    1595.804
  O     -774.616    -659.039    1595.836
  N     -772.338    -660.932    1596.721
  C     -771.839    -662.115    1596.913
  N     -772.709    -663.127    1596.564
  O     -768.188    -663.026    1593.579
  O     -766.887    -664.561    1595.091
  H     -773.997    -664.892    1594.577
  H     -766.579    -663.663    1595.314
  H     -776.520    -660.345    1595.009
  H     -770.848    -662.309    1597.312
  H     -773.297    -664.867    1597.427
  H     -771.748    -664.801    1594.760
  H     -777.727    -662.235    1594.272
  H     -770.942    -666.951    1595.111
  H     -777.016    -663.800    1594.465
  H     -770.365    -666.623    1597.838
  H     -768.620    -664.966    1597.145
  H     -768.629    -666.387    1596.070
  P     -771.775    -669.232    1596.407
  C     -773.220    -670.340    1594.611
  O     -773.026    -670.127    1596.035
  O     -771.524    -669.612    1597.971
  O     -770.524    -669.508    1595.611
  H     -770.599    -669.869    1598.099
  H     -774.237    -670.759    1594.465
  H     -772.494    -671.102    1594.270
  H     -773.117    -669.415    1594.055
  H     -767.347    -667.039    1592.043
  H     -766.450    -666.595    1593.475
  H     -766.510    -665.507    1592.110

 3  4  5  6  7  8  9  10  11  12  23  26  30  31 0
 6-311+G(2d,p)
 ****
 33  35  36  37  38 0
 6-311+G(2d,p)
 ****
 1  2  13  14  15  16  17  18  19  20  21  22  24  25 0
 3-21G
 ****
 27  28  29  32  34  39  40  41  42  43  44  45  46  47  48  49 0
 3-21G
 ****


