%nproc=1
%NoSave
%Mem=1900MB
#P OB98/GEN NMR

erre ene a

0 1
  C     -589.445     251.317     -35.870
  O     -589.405     251.496     -37.276
  P     -590.707     251.101     -38.124
  C     -591.463     253.466     -38.882
  O     -591.735     252.331     -38.066
  C     -592.767     254.066     -39.418
  O     -593.558     253.020     -40.053
  C     -593.641     254.706     -38.339
  O     -594.335     255.835     -38.893
  C     -594.674     253.639     -38.045
  O     -595.861     254.200     -37.481
  C     -594.863     253.030     -39.436
  N     -598.380     249.943     -41.344
  C     -597.932     251.163     -41.816
  N     -598.566     251.657     -42.897
  N     -596.936     251.825     -41.285
  C     -596.402     251.209     -40.201
  C     -596.752     249.996     -39.645
  C     -597.859     249.278     -40.238
  O     -598.324     248.213     -39.857
  N     -595.952     249.684     -38.580
  C     -595.147     250.723     -38.452
  N     -595.404     251.691     -39.394
  O     -591.403     249.985     -37.206
  O     -590.420     250.567     -39.487
  H     -596.431     253.448     -37.219
  H     -591.265     249.104     -37.595
  H     -599.158     249.479     -41.783
  H     -594.386     250.838     -37.692
  H     -595.522     253.642     -40.063
  H     -594.272     252.907     -37.332
  H     -599.379     251.226     -43.314
  H     -593.096     255.019     -37.436
  H     -598.284     252.568     -43.237
  H     -592.517     254.796     -40.199
  H     -590.837     253.154     -39.727
  H     -590.915     254.214     -38.307
  P     -594.479     257.108     -37.924
  C     -592.068     258.022     -38.285
  O     -593.002     257.433     -37.401
  O     -595.216     256.514     -36.631
  O     -595.222     258.256     -38.534
  H     -595.706     257.217     -36.175
  H     -591.786     259.009     -37.899
  H     -592.469     258.139     -39.299
  H     -591.176     257.392     -38.328
  H     -588.511     251.622     -35.445
  H     -589.619     250.285     -35.647
  H     -590.235     251.909     -35.457

 3  4  5  6  7  8  9  10  11  12  23  26  30  31 0
 6-311+G(2d,p)
 ****
 33  35  36  37  38 0
 6-311+G(2d,p)
 ****
 1  2  13  14  15  16  17  18  19  20  21  22  24  25 0
 3-21G
 ****
 27  28  29  32  34  39  40  41  42  43  44  45  46  47  48  49 0
 3-21G
 ****


