%nproc=1
%NoSave
%Mem=1900MB
#P OB98/GEN NMR

erre ene a

0 1
  C        2.125       0.576      -9.904
  O        1.914       0.716      -8.511
  P        1.719       2.170      -7.873
  C       -0.219       3.882      -8.172
  O        0.638       2.936      -8.774
  C       -0.489       5.063      -9.112
  O        0.690       5.905      -9.118
  C       -0.734       4.680     -10.567
  O       -1.369       5.778     -11.225
  C        0.676       4.522     -11.089
  O        0.739       4.610     -12.510
  C        1.444       5.629     -10.321
  N        2.813       5.201      -9.982
  C        3.693       5.009     -11.042
  O        3.396       5.252     -12.211
  N        4.899       4.446     -10.724
  C        5.269       4.027      -9.481
  O        6.201       3.261      -9.267
  C        4.404       4.473      -8.377
  C        3.218       5.009      -8.675
  O        3.097       2.901      -8.227
  O        1.445       2.183      -6.408
  H        0.331       5.471     -12.760
  H        3.711       2.848      -7.471
  H        5.478       4.175     -11.509
  H        4.736       4.292      -7.364
  H        2.536       5.299      -7.881
  H        1.514       6.550     -10.912
  H        1.056       3.534     -10.802
  H       -1.323       3.768     -10.699
  H       -1.325       5.655      -8.722
  H        0.228       4.228      -7.235
  H       -1.173       3.414      -7.905
  P       -2.323       5.456     -12.473
  C       -4.536       4.199     -12.808
  O       -3.472       4.483     -11.922
  O       -1.639       5.001     -13.718
  O       -3.107       6.837     -12.695
  H       -3.487       6.859     -13.592
  H       -4.933       3.208     -12.574
  H       -4.205       4.212     -13.849
  H       -5.327       4.940     -12.669
  H        2.233      -0.461     -10.146
  H        3.013       1.102     -10.185
  H        1.288       0.980     -10.434

 3  4  5  6  7  8  9  10  11  12  13  23  28  29  30  31  32 0
 6-311+G(2d,p)
 ****
 33  34 0
 6-311+G(2d,p)
 ****
 1  2  14  15  16  17  18  19  20  21  22  24  25  26  27 0
 3-21G
 ****
 35  36  37  38  39  40  41  42  43  44  45 0
 3-21G
 ****


