%nproc=1
%NoSave
%Mem=1900MB
#P OB98/GEN NMR

erre ene a

0 1
  C      380.453    -483.134    -450.410
  O      379.180    -482.546    -450.553
  H      381.004    -483.016    -451.349
  H      380.348    -484.204    -450.198
  H      381.018    -482.653    -449.610
  P      378.284    -482.424    -449.225
  C      377.896    -484.978    -448.963
  O      377.318    -483.704    -449.208
  C      376.919    -486.085    -449.357
  O      375.881    -486.215    -448.362
  C      376.207    -485.856    -450.687
  O      377.013    -486.256    -451.789
  C      375.005    -486.769    -450.521
  O      375.402    -488.142    -450.735
  C      374.638    -486.548    -449.048
  N      369.868    -485.037    -449.875
  C      370.514    -486.193    -450.268
  N      369.788    -487.067    -450.997
  N      371.763    -486.470    -449.981
  C      372.365    -485.497    -449.258
  C      371.834    -484.308    -448.807
  C      370.455    -484.022    -449.127
  O      369.827    -483.024    -448.779
  N      372.755    -483.582    -448.095
  C      373.847    -484.318    -448.134
  N      373.670    -485.489    -448.837
  O      377.288    -481.214    -449.552
  O      379.041    -482.176    -447.967
  H      375.847    -488.178    -451.602
  H      377.128    -480.707    -448.736
  H      368.914    -484.866    -450.135
  H      374.789    -484.055    -447.667
  H      374.235    -487.454    -448.574
  H      374.211    -486.551    -451.235
  H      368.838    -486.898    -451.295
  H      375.867    -484.818    -450.788
  H      370.228    -487.938    -451.270
  H      377.476    -487.039    -449.372
  H      378.134    -485.068    -447.896
  H      378.820    -485.070    -449.545
  P      377.237    -485.189    -452.970
  C      375.139    -485.611    -454.446
  O      376.533    -485.831    -454.269
  O      378.800    -485.329    -453.291
  O      376.851    -483.786    -452.637
  H      379.126    -484.511    -453.715
  H      374.813    -486.093    -455.344
  H      374.950    -484.560    -454.516
  H      374.605    -486.014    -453.611

 6  7  8  9  10  11  12  13  14  15  26  29  33  34 0
 6-311+G(2d,p)
 ****
 36  38  39  40  41 0
 6-311+G(2d,p)
 ****
 1  2  3  4  5  16  17  18  19  20  21  22  23  24  25 0
 3-21G
 ****
 27  28  30  31  32  35  37  42  43  44  45  46  47 0
 3-21G
 ****
 48  49 0
 3-21G
 ****


