%nproc=1
%NoSave
%Mem=1900MB
#P OB98/GEN NMR

erre ene a

0 1
  C     -791.592    -481.701    -165.145
  O     -791.789    -482.900    -164.390
  P     -793.300    -483.224    -163.957
  C     -792.620    -484.298    -161.692
  O     -793.267    -484.471    -162.946
  C     -792.905    -485.489    -160.771
  O     -794.305    -485.618    -160.453
  C     -792.487    -486.827    -161.362
  O     -791.089    -487.004    -161.218
  C     -793.308    -487.805    -160.532
  O     -792.653    -488.110    -159.284
  C     -794.606    -487.029    -160.282
  N     -798.518    -490.195    -160.898
  C     -797.500    -490.217    -159.964
  N     -797.542    -491.207    -159.054
  N     -796.530    -489.343    -159.929
  C     -796.611    -488.406    -160.905
  C     -797.582    -488.264    -161.870
  C     -798.651    -489.247    -161.901
  O     -799.583    -489.258    -162.695
  N     -797.367    -487.156    -162.646
  C     -796.192    -486.703    -162.229
  N     -795.726    -487.387    -161.136
  O     -793.947    -483.822    -165.292
  O     -794.047    -482.029    -163.472
  H     -791.773    -488.484    -159.470
  H     -794.592    -483.187    -165.661
  H     -799.231    -490.901    -160.888
  H     -795.656    -485.877    -162.668
  H     -794.958    -487.154    -159.250
  H     -793.448    -488.759    -161.050
  H     -798.265    -491.917    -159.017
  H     -792.789    -486.883    -162.418
  H     -796.813    -491.239    -158.352
  H     -792.365    -485.313    -159.830
  H     -792.963    -483.378    -161.219
  H     -791.544    -484.186    -161.863
  P     -790.247    -487.461    -162.501
  C     -788.444    -488.899    -161.320
  O     -788.742    -487.713    -162.032
  O     -790.164    -486.124    -163.374
  O     -790.871    -488.575    -163.286
  H     -790.344    -486.327    -164.310
  H     -787.402    -489.182    -161.529
  H     -789.098    -489.722    -161.607
  H     -788.545    -488.714    -160.246
  H     -790.553    -481.591    -165.375
  H     -791.922    -480.860    -164.571
  H     -792.154    -481.755    -166.054

 3  4  5  6  7  8  9  10  11  12  23  26  30  31 0
 6-311+G(2d,p)
 ****
 33  35  36  37  38 0
 6-311+G(2d,p)
 ****
 1  2  13  14  15  16  17  18  19  20  21  22  24  25 0
 3-21G
 ****
 27  28  29  32  34  39  40  41  42  43  44  45  46  47  48  49 0
 3-21G
 ****


