%nproc=1
%NoSave
%Mem=1900MB
#P OB98/GEN NMR

erre ene a

0 1
  C       -6.306     -18.256     -27.386
  O       -5.194     -18.740     -26.652
  P       -5.309     -18.773     -25.049
  C       -3.574     -16.853     -24.747
  O       -4.898     -17.312     -24.529
  C       -3.406     -15.427     -24.220
  O       -4.327     -14.560     -24.930
  C       -3.689     -15.258     -22.723
  O       -2.828     -14.215     -22.250
  C       -5.128     -14.779     -22.698
  O       -5.463     -14.105     -21.490
  C       -5.157     -13.905     -23.946
  N       -9.083     -10.747     -24.371
  C       -7.898     -10.596     -23.674
  N       -7.714      -9.411     -23.054
  N       -6.978     -11.521     -23.595
  C       -7.296     -12.646     -24.280
  C       -8.449     -12.928     -24.972
  C       -9.441     -11.884     -25.083
  O      -10.465     -11.942     -25.760
  N       -8.444     -14.209     -25.457
  C       -7.254     -14.670     -25.129
  N       -6.505     -13.745     -24.455
  O       -4.071     -19.689     -24.623
  O       -6.610     -19.271     -24.503
  H       -6.407     -13.852     -21.540
  H       -4.344     -20.621     -24.517
  H       -9.746      -9.991     -24.411
  H       -6.882     -15.656     -25.355
  H       -4.748     -12.902     -23.767
  H       -5.804     -15.637     -22.802
  H       -8.366      -8.644     -23.099
  H       -3.536     -16.172     -22.142
  H       -6.840      -9.263     -22.564
  H       -2.390     -15.089     -24.458
  H       -3.373     -16.852     -25.823
  H       -2.865     -17.533     -24.264
  P       -2.040     -14.459     -20.876
  C       -3.916     -13.316     -19.506
  O       -3.118     -14.466     -19.694
  O       -1.266     -13.072     -20.658
  O       -1.080     -15.603     -20.898
  H       -0.421     -13.236     -20.201
  H       -4.826     -13.602     -18.973
  H       -4.196     -12.858     -20.460
  H       -3.368     -12.588     -18.903
  H       -6.086     -18.293     -28.432
  H       -6.510     -17.245     -27.100
  H       -7.162     -18.865     -27.180

 3  4  5  6  7  8  9  10  11  12  23  26  30  31 0
 6-311+G(2d,p)
 ****
 33  35  36  37  38 0
 6-311+G(2d,p)
 ****
 1  2  13  14  15  16  17  18  19  20  21  22  24  25 0
 3-21G
 ****
 27  28  29  32  34  39  40  41  42  43  44  45  46  47  48  49 0
 3-21G
 ****


