%nproc=1
%NoSave
%Mem=1900MB
#P OB98/GEN NMR

erre ene a

0 1
  C      -93.014     471.512    -502.030
  O      -94.400     471.161    -501.915
  P      -94.916     470.004    -502.899
  C      -95.287     468.281    -500.975
  O      -95.867     469.018    -502.047
  C      -96.367     467.631    -500.121
  O      -97.024     468.572    -499.247
  C      -97.479     466.978    -500.951
  O      -97.061     465.701    -501.421
  C      -98.610     466.873    -499.914
  O      -98.466     465.709    -499.083
  C      -98.408     468.157    -499.075
  N     -103.021     470.115    -498.336
  C     -102.503     468.895    -497.953
  N     -103.329     468.094    -497.242
  N     -101.289     468.504    -498.218
  C     -100.575     469.398    -498.934
  C     -100.966     470.661    -499.343
  C     -102.313     471.085    -499.022
  O     -102.808     472.176    -499.321
  N      -99.946     471.312    -499.993
  C      -98.999     470.412    -500.075
  N      -99.289     469.251    -499.401
  O      -93.605     469.131    -503.173
  O      -95.510     470.529    -504.165
  H      -98.552     464.913    -499.638
  H      -93.316     469.250    -504.093
  H     -103.969     470.371    -498.090
  H      -98.045     470.542    -500.595
  H      -98.545     467.950    -497.996
  H      -99.582     466.812    -500.395
  H     -104.269     468.326    -496.980
  H      -97.779     467.624    -501.757
  H     -102.971     467.184    -496.951
  H      -95.886     466.867    -499.494
  H      -94.671     468.938    -500.362
  H      -94.621     467.529    -501.409
  P      -97.150     465.417    -502.993
  C      -94.683     464.702    -503.403
  O      -96.044     464.317    -503.344
  O      -96.563     466.762    -503.636
  O      -98.523     465.132    -503.495
  H      -97.126     467.060    -504.397
  H      -94.037     463.852    -503.128
  H      -94.457     465.540    -502.711
  H      -94.425     465.017    -504.426
  H      -92.783     472.288    -501.331
  H      -92.814     471.856    -503.023
  H      -92.410     470.654    -501.822

 3  4  5  6  7  8  9  10  11  12  23  26  30  31 0
 6-311+G(2d,p)
 ****
 33  35  36  37  38 0
 6-311+G(2d,p)
 ****
 1  2  13  14  15  16  17  18  19  20  21  22  24  25 0
 3-21G
 ****
 27  28  29  32  34  39  40  41  42  43  44  45  46  47  48  49 0
 3-21G
 ****


