%nproc=1
%NoSave
%Mem=1900MB
#P OB98/GEN NMR

erre ene a

0 1
  C      -59.547     215.348     436.872
  O      -59.758     216.255     435.812
  H      -59.816     215.841     437.809
  H      -58.493     215.064     436.913
  H      -60.164     214.455     436.756
  P      -59.756     215.702     434.309
  C      -58.129     217.461     433.349
  O      -59.453     216.950     433.350
  C      -58.080     218.848     432.695
  O      -58.717     218.775     431.390
  C      -58.855     219.883     433.515
  O      -58.344     221.203     433.334
  C      -60.250     219.809     432.912
  O      -61.018     220.995     433.130
  C      -59.931     219.542     431.442
  N      -61.479     217.396     427.081
  C      -60.388     218.210     427.319
  N      -59.601     218.484     426.243
  N      -60.102     218.726     428.486
  C      -61.013     218.427     429.442
  C      -62.145     217.651     429.328
  C      -62.427     217.061     428.037
  O      -63.396     216.351     427.768
  N      -62.829     217.584     430.515
  C      -62.113     218.316     431.346
  N      -60.992     218.828     430.749
  O      -61.301     215.407     434.013
  O      -58.907     214.489     434.069
  H      -61.810     220.937     432.565
  H      -61.391     214.760     433.292
  H      -61.636     217.006     426.170
  H      -62.356     218.491     432.387
  H      -59.759     220.481     430.906
  H      -60.788     218.987     433.390
  H      -59.895     218.271     425.306
  H      -58.876     219.648     434.576
  H      -58.998     219.307     426.329
  H      -57.039     219.145     432.520
  H      -57.511     216.750     432.794
  H      -57.737     217.502     434.368
  P      -58.155     222.129     434.630
  C      -59.049     224.500     433.869
  O      -57.964     223.651     434.186
  O      -56.718     221.714     435.191
  O      -59.227     221.972     435.664
  H      -56.802     221.300     436.070
  H      -58.678     225.467     433.601
  H      -59.693     224.587     434.719
  H      -59.596     224.088     433.047

 6  7  8  9  10  11  12  13  14  15  26  29  33  34 0
 6-311+G(2d,p)
 ****
 36  38  39  40  41 0
 6-311+G(2d,p)
 ****
 1  2  3  4  5  16  17  18  19  20  21  22  23  24  25 0
 3-21G
 ****
 27  28  30  31  32  35  37  42  43  44  45  46  47 0
 3-21G
 ****
 48  49 0
 3-21G
 ****


