%nproc=1
%NoSave
%Mem=1900MB
#P OB98/GEN NMR

erre ene a

0 1
  C     -849.553     104.287    -943.354
  O     -848.738     103.279    -942.761
  P     -848.067     103.507    -941.325
  C     -845.720     102.568    -941.831
  O     -846.505     103.739    -941.627
  C     -844.305     102.952    -942.242
  O     -844.322     103.302    -943.652
  C     -843.698     104.165    -941.544
  O     -843.106     103.883    -940.281
  C     -842.614     104.570    -942.531
  O     -841.485     103.698    -942.371
  C     -843.294     104.310    -943.875
  N     -843.231     107.671    -947.745
  C     -842.500     106.557    -947.498
  N     -842.565     105.727    -946.431
  C     -843.536     106.121    -945.590
  C     -844.358     107.227    -945.703
  C     -844.179     108.030    -946.839
  N     -844.935     109.157    -947.093
  N     -845.216     107.319    -944.619
  C     -844.910     106.267    -943.881
  N     -843.914     105.513    -944.427
  O     -848.374     102.446    -940.311
  O     -848.574     104.967    -940.872
  H     -841.805     102.783    -942.524
  H     -848.431     105.079    -939.909
  H     -841.763     106.293    -948.254
  H     -845.399     106.023    -942.940
  H     -842.600     103.916    -944.632
  H     -842.262     105.595    -942.377
  H     -844.438     104.984    -941.461
  H     -843.660     102.071    -942.128
  H     -846.185     101.980    -942.633
  H     -844.828     109.596    -948.001
  H     -845.748     109.318    -946.514
  H     -845.718     101.968    -940.921
  P     -842.816     105.132    -939.302
  C     -840.282     104.490    -939.047
  O     -841.252     105.431    -939.463
  O     -843.294     104.953    -937.913
  O     -843.509     106.347    -940.078
  H     -843.095     106.598    -940.921
  H     -839.306     104.816    -939.386
  H     -840.492     103.503    -939.464
  H     -840.277     104.427    -937.949
  H     -849.905     103.947    -944.305
  H     -848.978     105.180    -943.485
  H     -850.388     104.491    -942.717

 3  4  5  6  7  8  9  10  11  12  22  25  29  30  31  32 0
 6-311+G(2d,p)
 ****
 33  36  37 0
 6-311+G(2d,p)
 ****
 1  2  13  14  15  16  17  18  19  20  21  23  24  26 0
 3-21G
 ****
 27  28  34  35  38  39  40  41  42  43  44  45  46  47  48 0
 3-21G
 ****


