%nproc=1
%NoSave
%Mem=1900MB
#P OB98/GEN NMR

erre ene a

0 1
  C     -146.042      65.042     239.523
  O     -145.271      64.118     240.264
  H     -146.429      64.568     238.618
  H     -146.885      65.371     240.137
  H     -145.437      65.913     239.259
  P     -143.990      63.503     239.518
  C     -142.492      64.491     241.383
  O     -142.722      64.374     239.986
  C     -141.281      65.383     241.640
  O     -140.276      65.083     240.636
  C     -141.585      66.889     241.575
  O     -141.071      67.557     242.734
  C     -140.818      67.371     240.358
  O     -140.308      68.690     240.510
  C     -139.708      66.336     240.232
  N     -136.318      68.318     236.982
  C     -136.365      68.315     238.332
  N     -137.241      67.686     239.140
  C     -138.126      66.976     238.419
  C     -138.190      66.864     237.040
  C     -137.241      67.596     236.307
  N     -137.228      67.644     234.930
  N     -139.242      66.051     236.662
  C     -139.829      65.713     237.793
  N     -139.199      66.261     238.879
  O     -144.209      63.944     237.993
  O     -143.846      62.026     239.647
  H     -139.913      68.948     239.657
  H     -144.281      63.141     237.442
  H     -135.598      68.901     238.831
  H     -140.730      65.120     237.880
  H     -138.868      66.555     240.903
  H     -141.483      67.353     239.487
  H     -142.655      67.098     241.482
  H     -140.851      65.121     242.614
  H     -142.301      63.499     241.808
  H     -136.589      68.284     234.489
  H     -137.982      67.198     234.427
  H     -143.385      64.912     241.858
  P     -142.115      68.472     243.547
  C     -142.457      66.958     245.631
  O     -143.028      67.503     244.447
  O     -143.107      68.993     242.406
  O     -141.478      69.607     244.276
  H     -143.133      69.969     242.407
  H     -143.178      66.338     246.122
  H     -142.166      67.753     246.285
  H     -141.598      66.373     245.376

 6  7  8  9  10  11  12  13  14  15  25  28  32  33  34  35 0
 6-311+G(2d,p)
 ****
 36  39  40 0
 6-311+G(2d,p)
 ****
 1  2  3  4  5  16  17  18  19  20  21  22  23  24 0
 3-21G
 ****
 26  27  29  30  31  37  38  41  42  43  44  45  46  47  48 0
 3-21G
 ****


