%nproc=1
%NoSave
%Mem=1900MB
#P OB98/GEN NMR

erre ene a

0 1
  C      601.215     356.049     910.108
  O      602.391     355.825     909.339
  P      603.672     355.231     910.110
  C      602.796     352.833     909.635
  O      603.233     353.767     910.616
  C      603.875     351.794     909.372
  O      605.078     352.449     908.923
  C      604.286     350.973     910.588
  O      603.379     349.919     910.848
  C      605.643     350.446     910.144
  O      605.459     349.289     909.313
  C      606.202     351.619     909.319
  N      611.078     352.892     909.792
  C      610.474     352.013     908.916
  N      611.283     351.408     908.020
  N      609.189     351.752     908.916
  C      608.503     352.460     909.840
  C      608.989     353.353     910.770
  C      610.416     353.598     910.790
  O      611.013     354.315     911.586
  N      607.979     353.883     911.534
  C      606.880     353.334     911.046
  N      607.153     352.443     910.036
  O      603.723     356.086     911.454
  O      604.954     355.307     909.351
  H      605.122     348.570     909.882
  H      604.633     356.109     911.807
  H      612.064     353.072     909.739
  H      605.878     353.559     911.392
  H      606.681     351.257     908.394
  H      606.274     350.141     910.982
  H      612.249     351.660     907.886
  H      604.414     351.621     911.464
  H      610.856     350.792     907.337
  H      603.527     351.129     908.564
  H      602.572     353.356     908.700
  H      601.877     352.343     909.993
  P      603.258     349.441     912.376
  C      601.863     351.473     913.205
  O      603.104     350.789     913.231
  O      604.729     348.921     912.724
  O      602.226     348.394     912.614
  H      604.701     348.255     913.438
  H      601.022     350.780     913.167
  H      601.837     352.140     912.332
  H      601.780     352.078     914.112
  H      600.446     356.442     909.477
  H      601.428     356.748     910.889
  H      600.887     355.125     910.536

 3  4  5  6  7  8  9  10  11  12  23  26  30  31  33  0
 6-311+G(2d,p)
 ****
 35  36  37  38 0
 6-311+G(2d,p)
 ****
 1  2  13  14  15  16  17  18  19  20  21  22  24  25  27  28  29 0
 3-21G
 ****
 32  34  39  40  41  42  43  44  45  46  47  48  49 0
 3-21G
 ****


