%nproc=1
%NoSave
%Mem=1900MB
#P OB98/GEN NMR

erre ene a

0 1
  C     -218.647     211.196     152.102
  O     -219.376     210.204     152.806
  P     -218.555     208.981     153.444
  C     -219.795     206.988     152.257
  O     -218.634     207.796     152.369
  C     -219.519     205.794     151.339
  O     -219.054     206.259     150.054
  C     -218.438     204.843     151.841
  O     -218.917     203.997     152.874
  C     -218.057     204.123     150.552
  O     -219.009     203.086     150.259
  C     -218.168     205.255     149.512
  N     -216.875     205.835     149.150
  C     -215.985     204.989     148.493
  O     -216.248     203.819     148.218
  N     -214.768     205.535     148.176
  C     -214.342     206.788     148.502
  O     -213.224     207.213     148.232
  C     -215.312     207.624     149.226
  C     -216.515     207.116     149.511
  O     -219.549     208.538     154.615
  O     -217.184     209.365     153.886
  H     -220.473     208.759     154.407
  H     -218.760     202.721     149.388
  H     -214.114     204.948     147.679
  H     -215.006     208.624     149.508
  H     -217.238     207.715     150.051
  H     -218.647     204.887     148.599
  H     -217.068     203.655     150.608
  H     -217.579     205.418     152.208
  H     -220.464     205.254     151.185
  H     -220.609     207.587     151.843
  H     -220.084     206.643     153.256
  P     -217.805     203.225     153.747
  C     -218.902     200.929     153.140
  O     -217.742     201.732     153.169
  O     -218.562     203.077     155.150
  O     -216.499     203.945     153.817
  H     -219.496     202.827     155.051
  H     -218.755     200.127     152.417
  H     -219.782     201.510     152.850
  H     -219.066     200.490     154.128
  H     -219.321     211.942     151.736
  H     -218.134     210.745     151.279
  H     -217.936     211.650     152.760

 3  4  5  6  7  8  9  10  11  12  13  24  28  29  30  31  32 0
 6-311+G(2d,p)
 ****
 33  34 0
 6-311+G(2d,p)
 ****
 1  2  14  15  16  17  18  19  20  21  22  23  25  26  27 0
 3-21G
 ****
 35  36  37  38  39  40  41  42  43  44  45 0
 3-21G
 ****


