%nproc=1
%NoSave
%Mem=1900MB
#P OB98/GEN NMR

erre ene a

0 1
  C      162.076     750.675     870.301
  O      161.711     751.499     869.213
  H      161.280     749.944     870.464
  H      162.189     751.277     871.205
  H      163.009     750.145     870.092
  P      162.774     752.560     868.654
  C      163.344     753.601     866.362
  O      162.529     752.671     867.073
  C      163.425     753.200     864.884
  O      164.257     752.021     864.747
  C      162.086     752.832     864.281
  O      161.303     753.992     864.007
  C      162.540     752.060     863.044
  O      162.889     752.948     861.975
  C      163.781     751.315     863.580
  N      163.494     749.911     863.880
  C      164.292     748.973     863.258
  O      165.211     749.250     862.490
  N      163.958     747.653     863.486
  C      162.850     747.225     864.148
  O      162.462     746.068     864.127
  C      162.070     748.261     864.847
  C      162.417     749.545     864.672
  O      164.189     752.334     869.067
  O      162.226     753.968     869.194
  H      162.756     754.239     869.967
  H      163.362     752.401     861.323
  H      164.510     746.965     863.004
  H      161.218     747.957     865.450
  H      161.843     750.335     865.150
  H      164.601     751.355     862.838
  H      161.745     751.394     862.687
  H      161.538     752.156     864.946
  H      163.916     754.025     864.337
  H      164.354     753.591     866.804
  H      162.927     754.607     866.478
  P      159.801     753.842     863.473
  C      157.743     755.371     863.235
  O      158.978     755.153     863.910
  O      159.142     752.536     863.814
  O      159.921     754.020     861.885
  H      159.465     753.286     861.450
  H      157.287     756.266     863.605
  H      157.091     754.541     863.408
  H      157.923     755.471     862.185

 6  7  8  9  10  11  12  13  14  15  16  27  31  32  33  34  35 0
 6-311+G(2d,p)
 ****
 36  37 0
 6-311+G(2d,p)
 ****
 1  2  3  4  5  17  18  19  20  21  22  23  24  25 0
 3-21G
 ****
 26  28  29  30  38  39  40  41  42  43  44  45 0
 3-21G
 ****


