%nproc=1
%NoSave
%Mem=1900MB
#P OB98/GEN NMR

erre ene a

0 1
  C      -29.383    -224.334    -406.467
  O      -28.295    -224.059    -405.607
  H      -30.313    -224.211    -405.906
  H      -29.322    -225.366    -406.826
  H      -29.386    -223.643    -407.315
  P      -26.837    -224.009    -406.281
  C      -27.444    -222.240    -408.126
  O      -26.720    -222.555    -406.949
  C      -27.891    -220.776    -408.107
  O      -28.937    -220.621    -407.114
  C      -26.768    -219.796    -407.758
  O      -26.967    -218.596    -408.507
  C      -26.996    -219.512    -406.283
  O      -26.425    -218.271    -405.879
  C      -28.530    -219.582    -406.199
  N      -29.003    -219.847    -404.842
  C      -29.376    -218.735    -404.079
  O      -29.289    -217.600    -404.552
  N      -29.800    -218.929    -402.791
  C      -29.790    -220.119    -402.280
  N      -30.197    -220.241    -400.988
  C      -29.363    -221.317    -403.034
  C      -28.995    -221.110    -404.296
  O      -27.022    -224.989    -407.533
  O      -25.720    -224.382    -405.365
  H      -25.463    -218.293    -406.070
  H      -27.853    -224.847    -408.018
  H      -29.362    -222.288    -402.560
  H      -28.675    -221.933    -404.924
  H      -28.979    -218.642    -406.543
  H      -26.545    -220.302    -405.672
  H      -25.774    -220.199    -407.963
  H      -28.334    -220.536    -409.080
  H      -30.463    -219.394    -400.502
  H      -28.324    -222.884    -408.216
  H      -30.179    -221.111    -400.474
  H      -26.793    -222.430    -408.985
  P      -25.834    -218.101    -409.522
  C      -27.359    -217.610    -411.554
  O      -26.472    -217.077    -410.576
  O      -24.980    -219.171    -410.113
  O      -24.940    -217.128    -408.601
  H      -24.003    -217.289    -408.824
  H      -27.708    -216.821    -412.187
  H      -28.193    -218.071    -411.066
  H      -26.843    -218.339    -412.144

 6  7  8  9  10  11  12  13  14  15  16  26  30  31  32  33  35 0
 6-311+G(2d,p)
 ****
 37  38 0
 6-311+G(2d,p)
 ****
 1  2  3  4  5  17  18  19  20  21  22  23  24  25 0
 3-21G
 ****
 27  28  29  34  36  39  40  41  42  43  44  45  46 0
 3-21G
 ****


