%nproc=1
%NoSave
%Mem=1900MB
#P OB98/GEN NMR

erre ene a

0 1
  C       57.457     508.908     258.768
  O       58.211     507.796     258.311
  P       58.082     506.421     259.142
  C       60.574     506.932     259.683
  O       59.575     505.940     259.483
  C       61.970     506.375     259.383
  O       62.928     507.472     259.394
  C       62.463     505.328     260.399
  O       63.252     504.380     259.663
  C       63.333     506.175     261.326
  O       64.226     505.417     262.127
  C       63.980     507.105     260.316
  N       67.679     508.832     263.403
  C       67.405     507.596     262.923
  N       66.407     507.208     262.091
  C       65.642     508.269     261.749
  C       65.784     509.587     262.174
  C       66.860     509.854     263.035
  N       67.126     511.114     263.533
  N       64.799     510.376     261.629
  C       64.071     509.557     260.900
  N       64.553     508.283     260.920
  O       57.602     505.374     258.031
  O       57.144     506.470     260.310
  H       64.747     506.011     262.694
  H       56.952     504.748     258.389
  H       68.087     506.810     263.250
  H       63.183     509.836     260.345
  H       64.768     506.603     259.728
  H       62.689     506.731     262.013
  H       61.655     504.800     260.913
  H       61.968     505.951     258.379
  H       60.549     507.260     260.725
  H       67.787     511.167     264.292
  H       66.402     511.817     263.424
  H       60.353     507.801     259.054
  P       62.966     502.822     259.851
  C       63.577     502.538     262.332
  O       64.010     502.361     260.993
  O       63.652     502.225     258.532
  O       61.526     502.429     260.038
  H       64.562     502.547     258.421
  H       64.333     502.105     262.990
  H       62.624     502.038     262.502
  H       63.492     503.607     262.559
  H       57.636     509.747     258.129
  H       57.751     509.152     259.768
  H       56.415     508.663     258.752

 3  4  5  6  7  8  9  10  11  12  22  25  29  30  31  32 0
 6-311+G(2d,p)
 ****
 33  36  37 0
 6-311+G(2d,p)
 ****
 1  2  13  14  15  16  17  18  19  20  21  23  24  26 0
 3-21G
 ****
 27  28  34  35  38  39  40  41  42  43  44  45  46  47  48 0
 3-21G
 ****


