%nproc=1
%NoSave
%Mem=1900MB
#P OB98/GEN NMR

erre ene a

0 1
  C       82.652      16.210      96.549
  O       82.732      15.231      95.525
  P       81.390      14.435      95.142
  C       82.335      12.023      94.864
  O       81.839      13.191      94.233
  C       83.590      11.518      94.150
  O       83.214      11.055      92.826
  C       84.692      12.568      93.965
  O       85.945      11.875      94.023
  C       84.453      13.072      92.554
  O       85.606      13.684      91.986
  C       84.009      11.785      91.867
  N       84.213      12.881      86.934
  C       85.234      12.785      87.862
  N       86.489      12.945      87.390
  N       85.042      12.550      89.133
  C       83.734      12.395      89.453
  C       82.635      12.507      88.636
  C       82.864      12.729      87.226
  O       81.996      12.735      86.356
  N       81.468      12.375      89.340
  C       81.864      12.103      90.567
  N       83.228      12.058      90.676
  O       80.674      15.421      94.108
  O       80.506      14.064      96.290
  H       85.363      14.009      91.096
  H       80.028      15.998      94.562
  H       84.423      13.045      85.963
  H       81.216      11.925      91.410
  H       84.856      11.152      91.571
  H       83.646      13.815      92.560
  H       86.711      13.098      86.419
  H       84.664      13.367      94.710
  H       87.258      12.846      88.043
  H       83.976      10.652      94.701
  H       81.568      11.243      94.815
  H       82.545      12.235      95.916
  P       87.044      12.398      95.065
  C       88.924      11.983      93.332
  O       88.450      11.762      94.645
  O       86.668      11.605      96.407
  O       87.034      13.873      95.300
  H       86.885      12.154      97.183
  H       90.009      11.853      93.322
  H       88.688      12.993      92.983
  H       88.474      11.252      92.655
  H       83.615      16.654      96.694
  H       82.331      15.748      97.459
  H       81.950      16.966      96.266

 3  4  5  6  7  8  9  10  11  12  23  26  30  31 0
 6-311+G(2d,p)
 ****
 33  35  36  37  38 0
 6-311+G(2d,p)
 ****
 1  2  13  14  15  16  17  18  19  20  21  22  24  25 0
 3-21G
 ****
 27  28  29  32  34  39  40  41  42  43  44  45  46  47  48  49 0
 3-21G
 ****


