%nproc=1
%NoSave
%Mem=1900MB
#P OB98/GEN NMR

erre ene a

0 1
  C      300.983    -884.725     609.669
  O      302.218    -885.077     610.270
  H      300.482    -885.643     609.345
  H      301.161    -884.103     608.793
  H      300.347    -884.202     610.390
  P      303.125    -883.858     610.790
  C      304.217    -881.829     609.584
  O      303.731    -883.163     609.474
  C      304.671    -881.315     608.227
  O      303.532    -881.005     607.386
  C      305.522    -880.051     608.293
  O      306.876    -880.357     608.567
  C      305.325    -879.493     606.887
  O      306.175    -880.147     605.920
  C      303.851    -879.810     606.621
  N      302.167    -875.241     605.275
  C      303.070    -876.075     604.649
  N      303.647    -875.612     603.523
  N      303.385    -877.268     605.090
  C      302.755    -877.589     606.244
  C      301.825    -876.859     606.946
  C      301.456    -875.550     606.434
  O      300.622    -874.793     606.912
  N      301.401    -877.539     608.067
  C      302.086    -878.665     608.048
  N      302.938    -878.736     606.972
  O      304.402    -884.593     611.435
  O      302.470    -882.934     611.769
  H      307.097    -879.881     606.069
  H      304.747    -884.049     612.168
  H      301.957    -874.341     604.879
  H      302.009    -879.442     608.789
  H      303.661    -880.047     605.558
  H      305.566    -878.421     606.834
  H      303.701    -874.607     603.332
  H      305.119    -879.341     609.029
  H      304.332    -876.203     603.069
  H      305.224    -882.125     607.729
  H      305.063    -881.816     610.285
  H      303.406    -881.192     609.982
  P      307.845    -879.155     608.999
  C      308.305    -876.843     607.869
  O      308.030    -878.237     607.688
  O      309.271    -879.861     609.166
  O      307.420    -878.427     610.242
  H      309.871    -879.289     609.681
  H      308.401    -876.371     606.913
  H      309.217    -876.728     608.417
  H      307.503    -876.389     608.412

 6  7  8  9  10  11  12  13  14  15  26  29  33  34 0
 6-311+G(2d,p)
 ****
 36  38  39  40  41 0
 6-311+G(2d,p)
 ****
 1  2  3  4  5  16  17  18  19  20  21  22  23  24  25 0
 3-21G
 ****
 27  28  30  31  32  35  37  42  43  44  45  46  47 0
 3-21G
 ****
 48  49 0
 3-21G
 ****


