%nproc=1
%NoSave
%Mem=1900MB
#P OB98/GEN NMR

erre ene a

0 1
  C      -44.269    -400.737      -9.169
  O      -44.281    -401.494     -10.362
  H      -43.255    -400.396      -8.950
  H      -44.915    -399.864      -9.298
  H      -44.649    -401.337      -8.337
  P      -43.371    -402.816     -10.374
  C      -45.053    -404.075     -11.885
  O      -43.722    -403.606     -11.730
  C      -45.274    -404.563     -13.313
  O      -45.569    -403.409     -14.144
  C      -44.065    -405.292     -13.923
  O      -44.467    -406.542     -14.495
  C      -43.601    -404.374     -15.039
  O      -43.084    -405.081     -16.160
  C      -44.867    -403.598     -15.379
  N      -43.256    -401.386     -19.681
  C      -43.812    -402.595     -19.452
  N      -44.309    -403.087     -18.301
  C      -44.222    -402.173     -17.318
  C      -43.705    -400.892     -17.405
  C      -43.184    -400.511     -18.652
  N      -42.567    -399.297     -18.872
  N      -43.778    -400.248     -16.183
  C      -44.291    -401.143     -15.362
  N      -44.561    -402.326     -16.001
  O      -44.027    -403.721      -9.226
  O      -41.922    -402.573     -10.122
  H      -43.770    -405.714     -16.444
  H      -43.358    -403.882      -8.533
  H      -43.857    -403.262     -20.310
  H      -44.445    -401.005     -14.300
  H      -45.520    -404.162     -16.057
  H      -42.817    -403.712     -14.653
  H      -43.268    -405.468     -13.192
  H      -46.160    -405.209     -13.332
  H      -45.756    -403.261     -11.672
  H      -42.121    -399.151     -19.762
  H      -42.412    -398.687     -18.081
  H      -45.231    -404.888     -11.171
  P      -43.695    -407.848     -13.963
  C      -45.905    -409.181     -13.662
  O      -44.617    -409.131     -14.264
  O      -43.762    -407.687     -12.371
  O      -42.285    -407.951     -14.440
  H      -42.861    -407.705     -11.996
  H      -46.399    -410.085     -13.951
  H      -46.483    -408.340     -13.985
  H      -45.802    -409.155     -12.597

 6  7  8  9  10  11  12  13  14  15  25  28  32  33  34  35 0
 6-311+G(2d,p)
 ****
 36  39  40 0
 6-311+G(2d,p)
 ****
 1  2  3  4  5  16  17  18  19  20  21  22  23  24 0
 3-21G
 ****
 26  27  29  30  31  37  38  41  42  43  44  45  46  47  48 0
 3-21G
 ****


