%nproc=1
%NoSave
%Mem=1900MB
#P OB98/GEN NMR

erre ene a

0 1
  C     -103.591     169.991    -181.700
  O     -103.244     170.359    -183.022
  H     -103.836     170.895    -181.137
  H     -102.748     169.488    -181.217
  H     -104.464     169.330    -181.709
  P     -102.864     169.163    -184.019
  C     -100.310     169.663    -184.178
  O     -101.572     169.657    -184.830
  C      -99.484     170.874    -184.629
  O      -99.116     170.692    -186.031
  C     -100.235     172.211    -184.536
  O      -99.266     173.249    -184.314
  C     -100.807     172.341    -185.940
  O     -101.267     173.650    -186.178
  C      -99.611     171.845    -186.745
  N     -100.921     173.629    -191.356
  C     -100.596     174.263    -190.205
  N     -100.247     173.719    -189.023
  C     -100.228     172.377    -189.101
  C     -100.528     171.596    -190.204
  C     -100.892     172.278    -191.377
  N     -101.231     171.637    -192.547
  N     -100.403     170.251    -189.896
  C     -100.036     170.227    -188.631
  N      -99.924     171.485    -188.107
  O     -104.036     169.203    -185.107
  O     -102.731     167.818    -183.387
  H     -101.488     173.774    -187.129
  H     -104.733     168.564    -184.867
  H     -100.623     175.348    -190.244
  H      -99.846     169.332    -188.047
  H      -98.805     172.590    -186.776
  H     -101.670     171.676    -186.070
  H     -100.986     172.235    -183.739
  H      -98.546     170.900    -184.058
  H      -99.783     168.737    -184.434
  H     -100.458     169.705    -183.095
  H     -101.499     172.199    -193.339
  H     -101.233     170.628    -192.573
  P      -99.043     173.805    -182.822
  C     -100.353     176.004    -183.363
  O      -99.174     175.403    -182.847
  O      -97.461     173.608    -182.628
  O      -99.800     173.100    -181.748
  H      -97.265     173.483    -181.679
  H     -100.267     177.069    -183.302
  H     -101.198     175.681    -182.791
  H     -100.483     175.715    -184.385

 6  7  8  9  10  11  12  13  14  15  25  28  32  33  34  35 0
 6-311+G(2d,p)
 ****
 36  37  40 0
 6-311+G(2d,p)
 ****
 1  2  3  4  5  16  17  18  19  20  21  22  23  24 0
 3-21G
 ****
 26  27  29  30  31  38  39 41  42  43  44  45  46  47  48 0
 3-21G
 ****


