%nproc=1
%NoSave
%Mem=1900MB
#P OB98/GEN NMR

erre ene a

0 1
  C       94.647     133.057    -139.985
  O       95.768     132.217    -140.178
  H       94.450     133.594    -140.916
  H       94.853     133.788    -139.199
  H       93.762     132.469    -139.727
  P       96.213     131.237    -138.990
  C       95.149     129.260    -137.737
  O       95.077     130.108    -138.874
  C       94.914     127.804    -138.135
  O       93.621     127.701    -138.783
  C       95.970     127.253    -139.100
  O       96.226     125.891    -138.760
  C       95.281     127.320    -140.449
  O       95.794     126.356    -141.368
  C       93.821     127.084    -140.070
  N       91.698     126.323    -144.589
  C       92.516     125.502    -143.839
  N       92.841     124.308    -144.381
  N       92.979     125.824    -142.661
  C       92.564     127.041    -142.235
  C       91.757     127.946    -142.883
  C       91.262     127.584    -144.194
  O       90.546     128.273    -144.910
  N       91.586     129.084    -142.135
  C       92.289     128.868    -141.039
  N       92.911     127.646    -141.056
  O       96.550     131.908    -137.697
  O       97.462     130.442    -139.591
  H       95.488     126.620    -142.262
  H       98.301     130.818    -139.265
  H       91.376     126.028    -145.496
  H       92.389     129.558    -140.212
  H       93.578     126.017    -139.985
  H       95.418     128.317    -140.887
  H       92.507     123.985    -145.275
  H       96.902     127.825    -139.083
  H       93.420     123.678    -143.838
  H       94.862     127.199    -137.223
  H       94.379     129.575    -137.024
  H       96.132     129.367    -137.265
  P       97.097     125.574    -137.451
  C       96.626     124.579    -135.122
  O       96.091     125.286    -136.236
  O       98.193     126.543    -137.155
  O       97.688     124.113    -137.765
  H       98.552     124.022    -137.319
  H       95.864     124.449    -134.382
  H       97.438     125.135    -134.703
  H       96.978     123.621    -135.443

 6  7  8  9  10  11  12  13  14  15  26  29  33  34 0
 6-311+G(2d,p)
 ****
 36  38  39  40  41 0
 6-311+G(2d,p)
 ****
 1  2  3  4  5  16  17  18  19  20  21  22  23  24  25 0
 3-21G
 ****
 27  28  30  31  32  35  37  42  43  44  45  46  47 0
 3-21G
 ****
 48  49 0
 3-21G
 ****


