%nproc=1
%NoSave
%Mem=1900MB
#P OB98/GEN NMR

erre ene a

0 1
  C     -126.792    -120.833     580.445
  O     -125.435    -121.008     580.797
  P     -124.875    -120.453     582.193
  C     -124.650    -118.201     580.953
  O     -125.096    -118.863     582.137
  C     -123.717    -117.041     581.302
  O     -124.295    -116.214     582.331
  C     -122.355    -117.474     581.830
  O     -121.525    -117.911     580.774
  C     -121.890    -116.195     582.521
  O     -121.314    -115.277     581.577
  C     -123.211    -115.638     583.089
  N     -123.353    -115.893     584.518
  C     -124.091    -114.946     585.238
  O     -124.548    -113.951     584.672
  N     -124.245    -115.126     586.592
  C     -123.696    -116.142     587.174
  N     -123.875    -116.258     588.517
  C     -122.884    -117.147     586.456
  C     -122.755    -116.961     585.144
  O     -123.498    -120.896     582.550
  O     -125.989    -120.929     583.244
  H     -120.467    -115.674     581.296
  H     -125.927    -121.898     583.422
  H     -122.437    -117.974     586.984
  H     -122.177    -117.648     584.538
  H     -123.270    -114.552     582.930
  H     -121.129    -116.393     583.280
  H     -122.485    -118.265     582.577
  H     -123.593    -116.424     580.400
  H     -124.414    -115.535     588.976
  H     -125.525    -117.814     580.425
  H     -123.463    -116.991     589.074
  H     -124.147    -118.924     580.305
  P     -120.044    -118.434     581.085
  C     -118.276    -117.037     579.858
  O     -119.059    -117.168     581.025
  O     -119.605    -119.623     580.298
  O     -120.094    -118.779     582.651
  H     -119.647    -119.631     582.801
  H     -117.917    -116.006     579.790
  H     -118.861    -117.269     578.965
  H     -117.416    -117.708     579.916
  H     -126.970    -121.269     579.484
  H     -127.020    -119.788     580.411
  H     -127.414    -121.310     581.174

 3  4  5  6  7  8  9  10  11  12  13  23  27  28  29  30  32 0
 6-311+G(2d,p)
 ****
 34  35 0
 6-311+G(2d,p)
 ****
 1  2  14  15  16  17  18  19  20  21  22  24  25  26 0
 3-21G
 ****
 31  33  36  37  38  39  40  41  42  43  44  45  46 0
 3-21G
 ****


