%nproc=1
%NoSave
%Mem=1900MB
#P OB98/GEN NMR

erre ene a

0 1
  C     -605.375     265.080     467.609
  O     -604.123     264.815     468.209
  H     -605.254     265.902     466.893
  H     -606.098     265.382     468.372
  H     -605.743     264.200     467.072
  P     -604.011     263.498     469.114
  C     -601.471     263.901     468.707
  O     -602.474     263.388     469.573
  C     -600.193     263.081     468.844
  O     -599.568     263.390     470.123
  C     -600.415     261.557     468.812
  O     -599.322     260.947     468.134
  C     -600.381     261.172     470.280
  O     -600.052     259.805     470.508
  C     -599.320     262.143     470.802
  N     -599.385     262.310     472.252
  C     -598.911     261.264     473.038
  O     -598.368     260.249     472.603
  N     -599.076     261.423     474.393
  C     -599.668     262.482     475.012
  O     -599.814     262.561     476.228
  C     -600.152     263.552     474.130
  C     -599.989     263.415     472.811
  O     -604.160     262.312     468.050
  O     -604.996     263.395     470.227
  H     -605.102     262.068     467.948
  H     -599.182     259.644     470.070
  H     -598.737     260.676     474.975
  H     -600.646     264.400     474.591
  H     -600.362     264.182     472.123
  H     -598.316     261.807     470.515
  H     -601.353     261.366     470.741
  H     -601.362     261.251     468.333
  H     -599.490     263.375     468.062
  H     -601.250     264.939     468.988
  H     -601.835     263.883     467.678
  P     -599.613     260.283     466.701
  C     -597.037     260.238     466.214
  O     -598.263     259.521     466.293
  O     -599.632     261.579     465.763
  O     -600.856     259.459     466.678
  H     -598.999     262.267     466.044
  H     -596.251     259.570     465.930
  H     -596.813     260.667     467.168
  H     -597.125     261.016     465.485

 6  7  8  9  10  11  12  13  14  15  16  27  31  32  33  34  35 0
 6-311+G(2d,p)
 ****
 36  37 0
 6-311+G(2d,p)
 ****
 1  2  3  4  5  17  18  19  20  21  22  23  24  25 0
 3-21G
 ****
 26  28  29  30  38  39  40  41  42  43  44  45 0
 3-21G
 ****


