%nproc=1
%NoSave
%Mem=1900MB
#P OB98/GEN NMR

erre ene a

0 1
  C     -164.732     170.438     -13.603
  O     -164.554     171.089     -14.840
  H     -165.804     170.392     -13.386
  H     -164.245     170.998     -12.802
  H     -164.339     169.419     -13.642
  P     -163.065     171.336     -15.390
  C     -163.194     173.897     -15.295
  O     -162.599     172.733     -14.738
  C     -162.839     175.141     -14.479
  O     -161.405     175.374     -14.548
  C     -163.539     176.419     -14.964
  O     -164.091     177.121     -13.848
  C     -162.409     177.235     -15.572
  O     -162.680     178.635     -15.589
  C     -161.232     176.794     -14.698
  N     -159.947     177.137     -15.295
  C     -159.389     178.356     -14.898
  O     -159.974     179.071     -14.083
  N     -158.213     178.762     -15.472
  C     -157.667     178.038     -16.397
  N     -156.515     178.513     -16.947
  C     -158.236     176.760     -16.868
  C     -159.366     176.369     -16.276
  O     -162.928     171.253     -16.873
  O     -162.160     170.267     -14.616
  H     -163.202     178.840     -16.394
  H     -161.336     170.112     -15.134
  H     -157.743     176.197     -17.646
  H     -159.858     175.445     -16.556
  H     -161.288     177.252     -13.702
  H     -162.246     176.912     -16.609
  H     -164.329     176.228     -15.689
  H     -163.065     174.940     -13.425
  H     -156.163     179.398     -16.599
  H     -164.280     173.756     -15.323
  H     -156.015     178.051     -17.689
  H     -162.819     174.022     -16.316
  P     -165.653     176.890     -13.567
  C     -166.534     179.185     -14.404
  O     -166.481     177.780     -14.614
  O     -165.889     177.624     -12.163
  O     -166.041     175.450     -13.506
  H     -166.057     176.960     -11.469
  H     -167.117     179.639     -15.177
  H     -165.542     179.586     -14.423
  H     -166.982     179.387     -13.454

 6  7  8  9  10  11  12  13  14  15  16  26  30  31  32  33  35 0
 6-311+G(2d,p)
 ****
 37  38 0
 6-311+G(2d,p)
 ****
 1  2  3  4  5  17  18  19  20  21  22  23  24  25 0
 3-21G
 ****
 27  28  29  34  36  39  40  41  42  43  44  45  46 0
 3-21G
 ****


