%nproc=1
%NoSave
%Mem=1900MB
#P OB98/GEN NMR

erre ene a

0 1
  C       90.062     -98.483      11.291
  O       89.702     -99.524      12.179
  P       89.322    -100.976      11.628
  C       91.759    -101.702      11.942
  O       90.663    -101.636      11.038
  C       91.978    -103.127      12.445
  O       92.012    -104.032      11.308
  C       93.278    -103.336      13.235
  O       93.001    -104.322      14.234
  C       94.214    -103.921      12.189
  O       95.309    -104.627      12.759
  C       93.237    -104.790      11.406
  N       95.208    -108.461       8.444
  C       94.883    -108.441       9.753
  N       94.386    -107.415      10.475
  C       94.230    -106.326       9.707
  C       94.547    -106.186       8.366
  C       95.045    -107.331       7.717
  N       95.350    -107.378       6.374
  N       94.297    -104.892       7.945
  C       93.839    -104.270       9.011
  N       93.721    -105.113      10.082
  O       88.149    -101.022      10.706
  O       89.050    -101.834      12.951
  H       95.742    -104.048      13.414
  H       88.089    -101.984      13.057
  H       95.035    -109.373      10.292
  H       93.582    -103.221       9.064
  H       93.014    -105.730      11.923
  H       94.619    -103.114      11.566
  H       93.674    -102.424      13.690
  H       91.111    -103.411      13.057
  H       91.535    -101.049      12.792
  H       95.571    -108.282       5.986
  H       94.992    -106.647       5.762
  H       92.667    -101.331      11.453
  P       93.786    -104.286      15.631
  C       92.212    -102.601      16.740
  O       93.523    -102.840      16.264
  O       95.216    -104.712      15.572
  O       92.920    -105.256      16.571
  H       93.453    -105.523      17.344
  H       91.563    -102.342      15.900
  H       92.236    -101.763      17.443
  H       91.810    -103.480      17.249
  H       90.279     -97.597      11.850
  H       89.252     -98.292      10.619
  H       90.928     -98.774      10.733

 3  4  5  6  7  8  9  10  11  12  22  25  29  30  31  32 0
 6-311+G(2d,p)
 ****
 33  36  37 0
 6-311+G(2d,p)
 ****
 1  2  13  14  15  16  17  18  19  20  21  23  24  26 0
 3-21G
 ****
 27  28  34  35  38  39  40  41  42  43  44  45  46  47  48 0
 3-21G
 ****


