%nproc=1
%NoSave
%Mem=1900MB
#P OB98/GEN NMR

erre ene a

0 1
  C      -28.085     -29.406      54.505
  O      -28.383     -28.723      55.708
  H      -27.447     -30.262      54.737
  H      -27.550     -28.743      53.820
  H      -29.005     -29.765      54.039
  P      -29.335     -27.437      55.583
  C      -27.181     -26.286      54.722
  O      -28.577     -26.484      54.539
  C      -26.571     -25.610      53.497
  O      -26.845     -26.373      52.309
  C      -27.105     -24.209      53.223
  O      -26.464     -23.252      54.051
  C      -26.718     -24.039      51.762
  O      -25.324     -23.688      51.665
  C      -26.944     -25.451      51.190
  N      -29.524     -25.029      46.772
  C      -28.305     -24.582      47.146
  N      -27.702     -24.693      48.348
  C      -28.489     -25.346      49.219
  C      -29.755     -25.860      48.980
  C      -30.272     -25.689      47.685
  N      -31.512     -26.156      47.304
  N      -30.259     -26.464      50.113
  C      -29.293     -26.364      51.003
  N      -28.214     -25.663      50.522
  O      -29.751     -26.812      56.870
  O      -30.532     -28.030      54.697
  H      -25.213     -22.811      52.076
  H      -30.186     -28.634      54.017
  H      -27.738     -24.067      46.376
  H      -29.316     -26.792      51.998
  H      -26.165     -25.725      50.469
  H      -27.281     -23.242      51.273
  H      -28.195     -24.171      53.312
  H      -25.482     -25.595      53.630
  H      -26.681     -27.243      54.907
  H      -31.874     -25.844      46.417
  H      -32.116     -26.536      48.019
  H      -27.053     -25.653      55.606
  P      -27.203     -21.885      54.442
  C      -25.911     -20.504      52.700
  O      -27.188     -20.965      53.127
  O      -26.687     -21.218      55.671
  O      -28.743     -22.286      54.586
  H      -29.153     -21.799      55.326
  H      -26.024     -19.905      51.821
  H      -25.284     -21.343      52.482
  H      -25.465     -19.918      53.476

 6  7  8  9  10  11  12  13  14  15  25  28  32  33  34  35 0
 6-311+G(2d,p)
 ****
 36  39  40 0
 6-311+G(2d,p)
 ****
 1  2  3  4  5  16  17  18  19  20  21  22  23  24 0
 3-21G
 ****
 26  27  29  30  31  37  38  41  42  43  44  45  46  47 0
 3-21G
 ****
 48 0
 3-21G
 ****


