%nproc=1
%NoSave
%Mem=1900MB
#P OB98/GEN NMR

erre ene a

0 1
  C      526.424    -355.480      90.227
  O      525.848    -354.637      91.225
  P      526.076    -353.049      91.135
  C      527.750    -352.904      93.087
  O      527.544    -352.709      91.694
  C      528.794    -351.943      93.665
  O      528.952    -352.152      95.096
  C      530.186    -352.065      93.029
  O      530.749    -350.743      92.990
  C      530.927    -352.925      94.033
  O      532.341    -352.836      93.892
  C      530.358    -352.378      95.345
  N      530.567    -353.279      96.470
  C      531.793    -353.198      97.134
  O      532.680    -352.458      96.701
  N      531.986    -353.971      98.249
  C      531.099    -354.858      98.570
  N      531.318    -355.595      99.697
  C      529.870    -355.096      97.789
  C      529.664    -354.262      96.777
  O      524.981    -352.212      91.703
  O      526.232    -352.806      89.560
  H      532.763    -353.249      94.673
  H      525.842    -351.934      89.337
  H      529.205    -355.903      98.048
  H      528.791    -354.352      96.144
  H      530.802    -351.400      95.592
  H      530.641    -353.976      93.898
  H      530.171    -352.477      92.019
  H      528.419    -350.922      93.525
  H      532.178    -355.440     100.210
  H      528.080    -353.937      93.254
  H      530.646    -356.275     100.045
  H      526.785    -352.810      93.601
  P      530.823    -349.975      91.583
  C      533.271    -350.579      90.941
  O      531.898    -350.733      90.656
  O      531.617    -348.637      91.979
  O      529.518    -349.619      90.949
  H      531.392    -347.937      91.341
  H      533.833    -351.360      90.420
  H      533.474    -350.651      92.012
  H      533.615    -349.598      90.573
  H      526.177    -356.500      90.436
  H      527.488    -355.363      90.231
  H      526.039    -355.209      89.266

 3  4  5  6  7  8  9  10  11  12  13  23  27  28  29  30  32 0
 6-311+G(2d,p)
 ****
 34  35 0
 6-311+G(2d,p)
 ****
 1  2  14  15  16  17  18  19  20  21  22  24  25  26 0
 3-21G
 ****
 31  33  36  37  38  39  40  41  42  43  44  45  46 0
 3-21G
 ****


