%nproc=1
%NoSave
%Mem=1900MB
#P OB98/GEN NMR

erre ene a

0 1
  C      328.426     319.917    -894.071
  O      329.781     320.275    -894.221
  H      328.359     319.045    -893.421
  H      327.993     319.655    -895.051
  H      327.858     320.740    -893.621
  P      330.086     321.649    -895.001
  C      332.321     323.001    -895.361
  O      331.695     321.759    -895.081
  C      333.829     322.890    -895.131
  O      334.097     322.938    -893.691
  C      334.463     321.622    -895.691
  O      335.774     321.919    -896.171
  C      334.574     320.724    -894.461
  O      335.568     319.725    -894.611
  C      334.860     321.762    -893.361
  N      334.535     321.280    -892.021
  C      335.603     320.806    -891.231
  O      336.751     320.828    -891.691
  N      335.336     320.306    -889.981
  C      334.112     320.220    -889.571
  N      333.911     319.687    -888.331
  C      332.955     320.648    -890.391
  C      333.229     321.171    -891.571
  O      329.681     322.751    -893.911
  O      329.368     321.781    -896.311
  H      335.395     319.225    -895.441
  H      330.018     322.548    -893.011
  H      331.928     320.535    -890.001
  H      332.432     321.535    -892.221
  H      335.927     322.048    -893.371
  H      333.599     320.215    -894.251
  H      333.853     321.160    -896.481
  H      334.311     323.786    -895.571
  H      334.730     319.381    -887.821
  H      331.908     323.793    -894.711
  H      333.009     319.503    -887.941
  H      332.106     323.272    -896.411
  P      335.964     322.187    -897.741
  C      337.278     323.932    -899.151
  O      337.229     323.153    -897.951
  O      334.749     322.544    -898.521
  O      336.561     320.777    -898.271
  H      336.144     320.579    -899.141
  H      338.169     324.524    -899.156
  H      336.423     324.574    -899.195
  H      337.278     323.280    -900.000

 6  7  8  9  10  11  12  13  14  15  16  26  30  31  32  33  35 0
 6-311+G(2d,p)
 ****
 37  38 0
 6-311+G(2d,p)
 ****
 1  2  3  4  5  17  18  19  20  21  22  23  24  25 0
 3-21G
 ****
 27  28  29  34  36  39  40  41  42  43  44  45  46 0
 3-21G
 ****


