%nproc=1
%NoSave
%Mem=1900MB
#P OB98/GEN NMR

erre ene a

0 1
  C      648.136     600.790      -2.634
  O      649.361     600.206      -3.067
  P      649.284     599.057      -4.206
  C      651.836     598.703      -3.810
  O      650.543     598.099      -3.926
  C      652.754     597.859      -2.930
  O      652.386     597.983      -1.559
  C      652.710     596.359      -3.243
  O      653.526     596.018      -4.351
  C      653.292     595.790      -1.961
  O      654.734     595.914      -1.969
  C      652.697     596.723      -0.888
  N      650.823     594.306       3.203
  C      652.088     594.644       2.861
  N      652.498     595.275       1.737
  C      651.462     595.541       0.925
  C      650.131     595.222       1.130
  C      649.806     594.596       2.349
  N      648.520     594.276       2.718
  N      649.348     595.650       0.073
  C      650.209     596.219      -0.758
  N      651.498     596.190      -0.272
  O      649.699     599.837      -5.530
  O      647.967     598.385      -4.331
  H      655.057     595.386      -1.217
  H      649.352     599.370      -6.323
  H      652.864     594.370       3.559
  H      649.951     596.670      -1.710
  H      653.407     596.955      -0.092
  H      653.066     594.737      -1.821
  H      651.669     596.016      -3.363
  H      653.783     598.250      -3.058
  H      651.743     599.702      -3.357
  H      648.359     594.002       3.672
  H      647.753     594.670       2.176
  H      652.263     598.825      -4.819
  P      653.621     594.453      -4.730
  C      655.810     594.938      -6.024
  O      655.161     594.175      -5.022
  O      652.927     594.382      -6.177
  O      652.965     593.553      -3.730
  H      652.545     593.492      -6.333
  H      656.904     594.853      -5.884
  H      655.544     596.000      -5.952
  H      655.563     594.568      -7.004
  H      648.337     601.527      -1.885
  H      647.504     600.030      -2.225
  H      647.647     601.251      -3.466

 3  4  5  6  7  8  9  10  11  12  22  25  29  30  31  32 0
 6-311+G(2d,p)
 ****
 33  36  37 0
 6-311+G(2d,p)
 ****
 1  2  13  14  15  16  17  18  19  20  21  23  24  26 0
 3-21G
 ****
 27  28  34  35  38  39  40  41  42  43  44  45  46  47  48 0
 3-21G
 ****


