%nproc=1
%NoSave
%Mem=1900MB
#P OB98/GEN NMR

erre ene a

0 1
  C     -472.097    -515.376     761.610
  O     -471.327    -516.527     761.974
  P     -470.148    -516.338     763.046
  C     -470.215    -518.317     764.735
  O     -470.606    -516.983     764.440
  C     -471.317    -519.305     764.325
  O     -471.550    -519.287     762.898
  C     -470.995    -520.751     764.662
  O     -471.289    -521.045     766.020
  C     -471.959    -521.484     763.745
  O     -473.281    -521.494     764.327
  C     -471.942    -520.613     762.483
  N     -471.409    -523.543     758.311
  C     -472.465    -523.318     759.133
  N     -472.524    -522.541     760.230
  C     -471.344    -521.942     760.456
  C     -470.178    -522.075     759.708
  C     -470.238    -522.924     758.591
  N     -469.167    -523.145     757.764
  N     -469.161    -521.318     760.253
  C     -469.705    -520.724     761.296
  N     -471.019    -521.078     761.466
  O     -470.178    -514.764     763.341
  O     -468.805    -516.773     762.548
  H     -473.899    -521.767     763.621
  H     -469.274    -514.441     763.506
  H     -473.387    -523.830     758.864
  H     -469.194    -520.033     761.954
  H     -472.931    -520.534     762.018
  H     -471.678    -522.534     763.586
  H     -469.961    -520.998     764.398
  H     -472.244    -519.001     764.831
  H     -469.997    -518.417     765.800
  H     -469.291    -523.738     756.960
  H     -468.296    -522.662     757.952
  H     -469.280    -518.538     764.207
  P     -470.049    -521.146     767.036
  C     -470.750    -518.973     768.256
  O     -469.758    -519.651     767.516
  O     -468.822    -521.495     766.063
  O     -470.215    -522.168     768.112
  H     -468.156    -522.032     766.540
  H     -470.287    -518.112     768.753
  H     -471.190    -519.617     769.016
  H     -471.528    -518.604     767.584
  H     -472.840    -515.656     760.892
  H     -471.452    -514.635     761.185
  H     -472.575    -514.977     762.480

 3  4  5  6  7  8  9  10  11  12  22  25  29  30  31  32 0
 6-311+G(2d,p)
 ****
 33  36  37 0
 6-311+G(2d,p)
 ****
 1  2  13  14  15  16  17  18  19  20  21  23  24  26 0
 3-21G
 ****
 27  28  34  35  38  39  40  41  42  43  44  45  46  47  48 0
 3-21G
 ****


