%nproc=1
%NoSave
%Mem=1900MB
#P OB98/GEN NMR

erre ene a

0 1
  C     1372.275     509.757     622.251
  O     1372.421     511.162     622.227
  H     1371.210     509.519     622.334
  H     1372.795     509.353     623.120
  H     1372.663     509.301     621.338
  P     1373.787     511.786     621.662
  C     1373.015     511.839     619.206
  O     1373.952     511.317     620.135
  C     1373.693     512.651     618.093
  O     1374.654     511.812     617.402
  C     1372.701     513.152     617.047
  O     1372.096     514.394     617.358
  C     1373.593     513.283     615.810
  O     1374.227     514.575     615.740
  C     1374.645     512.189     616.021
  N     1375.985     509.401     611.929
  C     1376.419     510.662     612.296
  N     1377.285     511.270     611.450
  N     1376.022     511.269     613.392
  C     1375.078     510.589     614.086
  C     1374.562     509.337     613.797
  C     1375.068     508.646     612.644
  O     1374.731     507.515     612.270
  N     1373.577     508.981     614.709
  C     1373.457     510.035     615.474
  N     1374.383     511.003     615.186
  O     1374.918     510.926     622.412
  O     1373.981     513.253     621.916
  H     1374.698     514.721     616.584
  H     1375.719     511.484     622.545
  H     1376.345     508.970     611.108
  H     1372.741     510.153     616.287
  H     1375.652     512.529     615.771
  H     1373.001     513.173     614.894
  H     1377.561     510.884     610.573
  H     1371.931     512.404     616.842
  H     1377.466     512.265     611.593
  H     1374.258     513.477     618.549
  H     1372.328     512.478     619.765
  H     1372.414     511.019     618.768
  P     1370.538     514.639     617.147
  C     1369.932     513.510     619.448
  O     1369.739     513.592     618.050
  O     1370.288     514.084     615.660
  O     1370.057     516.036     617.319
  H     1370.267     514.825     615.030
  H     1369.300     512.746     619.851
  H     1369.687     514.450     619.898
  H     1370.955     513.272     619.654

 6  7  8  9  10  11  12  13  14  15  26  29  33  34 0
 6-311+G(2d,p)
 ****
 36  38  39  40  41 0
 6-311+G(2d,p)
 ****
 1  2  3  4  5  16  17  18  19  20  21  22  23  24  25 0
 3-21G
 ****
 27  28  30  31  32  35  37  42  43  44  45  46  47 0
 3-21G
 ****
 48  49 0
 3-21G
 ****


