%nproc=1
%NoSave
%Mem=1900MB
#P OB98/GEN NMR

erre ene a

0 1
  C     -110.488    -141.908      31.666
  O     -109.598    -142.509      30.745
  H     -111.329    -141.480      31.113
  H     -109.980    -141.107      32.212
  H     -110.869    -142.656      32.365
  P     -108.301    -143.222      31.366
  C     -106.823    -141.177      30.786
  O     -107.072    -142.561      30.575
  C     -105.331    -140.880      30.670
  O     -105.095    -139.459      30.680
  C     -104.486    -141.447      31.802
  O     -104.212    -142.823      31.589
  C     -103.230    -140.597      31.677
  O     -102.405    -141.103      30.607
  C     -103.797    -139.217      31.290
  N     -101.617    -135.441      33.998
  C     -101.120    -136.278      33.061
  N     -101.746    -137.285      32.416
  C     -103.020    -137.390      32.821
  C     -103.667    -136.609      33.766
  C     -102.912    -135.584      34.362
  N     -103.428    -134.725      35.309
  N     -104.977    -137.014      33.923
  C     -105.132    -137.987      33.050
  N     -103.967    -138.278      32.383
  O     -108.338    -144.710      31.407
  O     -108.214    -142.503      32.795
  H     -101.621    -140.525      30.543
  H     -108.448    -141.562      32.720
  H     -100.079    -136.116      32.793
  H     -106.066    -138.501      32.850
  H     -103.173    -138.717      30.543
  H     -102.622    -140.615      32.582
  H     -104.946    -141.261      32.779
  H     -104.988    -141.258      29.698
  H     -107.188    -140.871      31.775
  H     -102.778    -134.137      35.805
  H     -104.352    -134.914      35.667
  H     -107.380    -140.623      30.026
  P     -104.485    -143.899      32.746
  C     -102.113    -143.274      33.514
  O     -103.049    -144.329      33.320
  O     -105.361    -145.039      32.353
  O     -105.115    -143.051      33.945
  H     -105.818    -143.563      34.391
  H     -101.198    -143.675      33.897
  H     -102.512    -142.567      34.211
  H     -101.926    -142.787      32.580

 6  7  8  9  10  11  12  13  14  15  25  28  32  33  34  35 0
 6-311+G(2d,p)
 ****
 36  39  40 0
 6-311+G(2d,p)
 ****
 1  2  3  4  5  16  17  18  19  20  21  22  23  24 0
 3-21G
 ****
 26  27  29  30  31  37  38  41  42  43  44  45  46  47 0
 3-21G
 ****
 48 0
 3-21G
 ****


