%nproc=1
%NoSave
%Mem=1900MB
#P OB98/GEN NMR

erre ene a

0 1
  C     -504.717     338.678     502.099
  O     -503.524     338.199     501.488
  P     -502.227     338.029     502.418
  C     -501.744     335.982     500.854
  O     -501.230     337.075     501.605
  C     -501.377     336.128     499.371
  O     -502.262     337.084     498.729
  C     -499.972     336.662     499.134
  O     -498.994     335.665     499.382
  C     -500.081     337.111     497.694
  O     -499.952     335.997     496.797
  C     -501.521     337.661     497.632
  N     -501.593     339.122     497.658
  C     -501.843     339.740     496.421
  O     -501.984     339.105     495.376
  N     -501.916     341.100     496.439
  C     -501.736     341.897     497.533
  O     -501.829     343.117     497.494
  C     -501.424     341.196     498.793
  C     -501.368     339.863     498.799
  O     -502.806     337.096     503.581
  O     -501.658     339.331     502.870
  H     -503.468     336.451     503.264
  H     -500.504     335.283     497.164
  H     -502.119     341.565     495.564
  H     -501.247     341.801     499.675
  H     -501.125     339.319     499.714
  H     -502.019     337.311     496.719
  H     -499.306     337.850     497.424
  H     -499.775     337.526     499.781
  H     -501.505     335.160     498.892
  H     -502.833     335.931     500.948
  H     -501.344     335.049     501.267
  P     -498.129     335.814     500.736
  C     -497.852     333.224     500.443
  O     -497.295     334.442     500.883
  O     -499.275     335.688     501.841
  O     -497.326     337.061     500.792
  H     -499.912     334.981     501.669
  H     -497.041     332.499     500.306
  H     -498.372     333.342     499.493
  H     -498.545     332.832     501.200
  H     -505.493     338.741     501.365
  H     -504.540     339.648     502.515
  H     -505.015     338.005     502.876

 3  4  5  6  7  8  9  10  11  12  13  24  28  29  30  31  32 0
 6-311+G(2d,p)
 ****
 33  34 0
 6-311+G(2d,p)
 ****
 1  2  14  15  16  17  18  19  20  21  22  23  25  26  27 0
 3-21G
 ****
 35  36  37  38  39  40  41  42  43  44  45 0
 3-21G
 ****


