%nproc=1
%NoSave
%Mem=1900MB
#P OB98/GEN NMR

erre ene a

0 1
  C     -301.380     -30.984     138.893
  O     -301.479     -30.581     140.251
  P     -302.913     -30.627     140.960
  C     -304.743     -28.825     141.375
  O     -303.725     -29.316     140.515
  C     -305.373     -27.562     140.782
  O     -305.752     -27.816     139.393
  C     -306.636     -27.088     141.518
  O     -306.662     -25.650     141.451
  C     -307.752     -27.655     140.663
  O     -308.997     -27.005     140.863
  C     -307.146     -27.459     139.270
  N     -307.817     -28.257     138.237
  C     -308.700     -27.596     137.392
  O     -308.949     -26.392     137.467
  N     -309.359     -28.382     136.485
  C     -309.287     -29.740     136.398
  O     -309.988     -30.396     135.638
  C     -308.336     -30.391     137.315
  C     -307.656     -29.629     138.178
  O     -302.566     -30.359     142.501
  O     -303.658     -31.908     140.771
  H     -309.686     -27.576     140.474
  H     -302.558     -31.197     142.999
  H     -309.994     -27.916     135.858
  H     -308.237     -31.465     137.259
  H     -306.957     -30.079     138.881
  H     -307.179     -26.395     138.986
  H     -307.887     -28.717     140.895
  H     -306.686     -27.420     142.560
  H     -304.616     -26.762     140.768
  H     -304.306     -28.586     142.344
  H     -305.507     -29.598     141.520
  P     -306.255     -24.832     142.774
  C     -307.283     -24.634     145.168
  O     -307.445     -25.035     143.824
  O     -306.449     -23.324     142.262
  O     -304.873     -25.126     143.262
  H     -307.263     -23.204     141.739
  H     -306.662     -23.736     145.251
  H     -306.822     -25.441     145.738
  H     -308.270     -24.423     145.598
  H     -300.364     -30.896     138.568
  H     -302.003     -30.358     138.289
  H     -301.698     -32.001     138.799

 3  4  5  6  7  8  9  10  11  12  13  23  28  29  30  31  32 0
 6-311+G(2d,p)
 ****
 33  34 0
 6-311+G(2d,p)
 ****
 1  2  14  15  16  17  18  19  20  21  22  24  25  26 0
 3-21G
 ****
 27  35  36  37  38  39  40  41  42  43  44  45 0
 3-21G
 ****


