%nproc=1
%NoSave
%Mem=1900MB
#P OB98/GEN NMR

erre ene a

0 1
  C      144.922     315.478      72.728
  O      144.974     314.288      71.966
  H      144.005     315.471      73.322
  H      144.909     316.353      72.073
  H      145.777     315.533      73.407
  P      146.211     314.073      70.972
  C      147.099     315.337      68.902
  O      145.985     315.088      69.751
  C      146.894     316.635      68.126
  O      146.827     317.755      69.028
  C      148.006     316.951      67.128
  O      147.819     316.227      65.923
  C      147.800     318.445      66.947
  O      146.668     318.678      66.085
  C      147.464     318.893      68.382
  N      151.114     322.362      69.021
  C      150.199     322.218      67.997
  N      150.287     323.108      66.984
  N      149.288     321.281      67.962
  C      149.361     320.423      69.004
  C      150.232     320.451      70.069
  C      151.195     321.532      70.130
  O      152.007     321.709      71.032
  N      150.066     319.360      70.884
  C      149.060     318.702      70.341
  N      148.601     319.302      69.191
  O      146.475     312.660      70.546
  O      147.457     314.708      71.749
  H      146.719     319.606      65.789
  H      147.922     314.035      72.279
  H      151.799     323.099      68.990
  H      148.622     317.794      70.739
  H      146.749     319.723      68.399
  H      148.659     318.941      66.493
  H      151.057     323.753      66.881
  H      148.997     316.781      67.562
  H      149.662     322.981      66.197
  H      145.920     316.572      67.620
  H      147.184     314.489      68.215
  H      148.020     315.402      69.490
  P      148.875     316.320      64.715
  C      148.793     317.872      62.647
  O      148.633     317.760      64.051
  O      148.833     315.180      63.759
  O      150.285     316.520      65.437
  H      150.704     315.665      65.707
  H      148.602     318.881      62.346
  H      148.104     317.216      62.156
  H      149.794     317.603      62.379

 6  7  8  9  10  11  12  13  14  15  26  29  33  34 0
 6-311+G(2d,p)
 ****
 36  38  39  40  41 0
 6-311+G(2d,p)
 ****
 1  2  3  4  5  16  17  18  19  20  21  22  23  24  25 0
 3-21G
 ****
 27  28  30  31  32  35  37  42  43  44  45  46  47 0
 3-21G
 ****
 48  49 0
 3-21G
 ****


