%nproc=1
%NoSave
%Mem=1900MB
#P OB98/GEN NMR

erre ene a

0 1
  C     -137.282     385.093     554.079
  O     -136.863     384.635     555.352
  H     -137.837     386.026     554.182
  H     -136.402     385.272     553.457
  H     -137.910     384.337     553.595
  P     -138.010     384.348     556.434
  C     -137.407     381.886     556.982
  O     -137.436     383.227     557.439
  C     -136.595     381.023     557.947
  O     -135.189     381.198     557.649
  C     -136.814     381.347     559.439
  O     -137.275     380.192     560.138
  C     -135.428     381.714     559.953
  O     -135.159     381.192     561.252
  C     -134.496     381.119     558.901
  N     -130.119     381.973     561.375
  C     -130.997     380.951     561.449
  N     -132.094     380.728     560.683
  C     -132.224     381.694     559.748
  C     -131.391     382.775     559.535
  C     -130.298     382.913     560.411
  N     -129.430     383.981     560.381
  N     -131.852     383.547     558.483
  C     -132.965     382.953     558.100
  N     -133.242     381.848     558.843
  O     -139.126     383.560     555.587
  O     -138.574     385.563     557.092
  H     -135.804     381.604     561.860
  H     -140.000     383.948     555.764
  H     -130.809     380.220     562.227
  H     -133.633     383.319     557.325
  H     -134.275     380.064     559.105
  H     -135.336     382.807     559.991
  H     -137.518     382.178     559.581
  H     -136.838     379.969     557.753
  H     -136.936     381.841     555.991
  H     -128.755     384.063     561.117
  H     -129.635     384.742     559.737
  H     -138.432     381.514     556.892
  P     -137.968     380.445     561.572
  C     -140.255     379.293     561.095
  O     -139.026     379.252     561.798
  O     -138.899     381.712     561.297
  O     -137.005     380.683     562.685
  H     -139.041     382.214     562.124
  H     -140.842     378.436     561.352
  H     -140.064     379.291     560.042
  H     -140.788     380.183     561.359

 6  7  8  9  10  11  12  13  14  15  25  28  32  33  34  35 0
 6-311+G(2d,p)
 ****
 36  39  40 0
 6-311+G(2d,p)
 ****
 1  2  3  4  5  16  17  18  19  20  21  22  23  24 0
 3-21G
 ****
 26  27  29  30  31  37  38  41  42  43  44  45  46  47  48 0
 3-21G
 ****


