%nproc=1
%NoSave
%Mem=1900MB
#P OB98/GEN NMR

erre ene a

0 1
  C     -122.310      47.288     -62.167
  O     -123.212      46.338     -61.625
  P     -124.484      45.925     -62.511
  C     -126.178      46.842     -60.718
  O     -125.674      46.892     -62.045
  C     -127.252      47.916     -60.522
  O     -126.631      49.209     -60.369
  C     -128.220      48.066     -61.689
  O     -129.191      47.033     -61.707
  C     -128.777      49.462     -61.433
  O     -129.802      49.412     -60.425
  C     -127.538      50.203     -60.893
  N     -126.883      51.039     -61.897
  C     -127.182      52.397     -61.856
  O     -127.949      52.893     -61.031
  N     -126.580      53.170     -62.814
  C     -125.782      52.720     -63.824
  O     -125.303      53.450     -64.683
  C     -125.528      51.271     -63.836
  C     -126.081      50.511     -62.888
  O     -124.839      44.503     -61.872
  O     -124.199      45.909     -63.975
  H     -124.552      44.442     -60.944
  H     -129.372      49.087     -59.610
  H     -126.764      54.162     -62.791
  H     -124.904      50.875     -64.628
  H     -125.912      49.440     -62.888
  H     -127.815      50.839     -60.044
  H     -129.219      49.911     -62.328
  H     -127.664      48.062     -62.636
  H     -127.798      47.689     -59.597
  H     -125.357      47.013     -60.019
  H     -126.595      45.846     -60.535
  P     -130.035      46.862     -63.066
  C     -132.433      46.701     -62.038
  O     -131.491      47.458     -62.766
  O     -130.254      45.277     -63.097
  O     -129.348      47.416     -64.270
  H     -130.478      44.909     -62.226
  H     -133.192      47.377     -61.639
  H     -131.962      46.168     -61.208
  H     -132.918      45.982     -62.704
  H     -121.517      47.465     -61.471
  H     -122.829      48.204     -62.357
  H     -121.904      46.912     -63.083

 3  4  5  6  7  8  9  10  11  12  13  24  28  29  30  31  32 0
 6-311+G(2d,p)
 ****
 33  34 0
 6-311+G(2d,p)
 ****
 1  2  14  15  16  17  18  19  20  21  22  23  25  26  27 0
 3-21G
 ****
 35  36  37  38  39  40  41  42  43  44  45 0
 3-21G
 ****


