%nproc=1
%NoSave
%Mem=1900MB
#P OB98/GEN NMR

erre ene a

0 1
  C     -226.650    -874.528      17.656
  O     -226.695    -874.026      18.981
  H     -225.684    -874.267      17.216
  H     -227.448    -874.077      17.061
  H     -226.756    -875.615      17.658
  P     -228.038    -874.325      19.807
  C     -229.046    -872.053      19.014
  O     -229.196    -873.463      19.101
  C     -230.157    -871.453      18.141
  O     -231.447    -871.722      18.779
  C     -230.060    -869.923      17.972
  O     -230.641    -869.588      16.698
  C     -230.954    -869.430      19.098
  O     -231.267    -868.063      18.928
  C     -232.087    -870.441      18.980
  N     -236.088    -868.286      21.343
  C     -235.507    -868.047      20.149
  N     -234.457    -868.671      19.575
  C     -234.003    -869.652      20.371
  C     -234.487    -870.025      21.617
  C     -235.583    -869.285      22.113
  N     -236.158    -869.527      23.331
  N     -233.749    -871.077      22.130
  C     -232.839    -871.332      21.221
  N     -232.948    -870.498      20.140
  O     -227.791    -873.570      21.197
  O     -228.360    -875.770      20.011
  H     -230.453    -867.517      18.982
  H     -227.437    -874.194      21.859
  H     -235.959    -867.236      19.558
  H     -232.085    -872.105      21.279
  H     -232.723    -870.250      18.106
  H     -230.446    -869.520      20.061
  H     -229.033    -869.552      18.009
  H     -230.175    -871.966      17.173
  H     -228.066    -871.839      18.566
  H     -229.093    -871.616      20.018
  H     -236.932    -868.943      23.620
  H     -235.784    -870.263      23.923
  P     -229.758    -869.723      15.367
  C     -229.427    -867.136      15.222
  O     -228.825    -868.428      15.223
  O     -230.845    -869.488      14.217
  O     -229.072    -871.040      15.173
  H     -230.573    -869.954      13.410
  H     -228.668    -866.389      15.118
  H     -229.952    -866.986      16.142
  H     -230.113    -867.063      14.404

 6  7  8  9  10  11  12  13  14  15  25  28  32  33  34  35 0
 6-311+G(2d,p)
 ****
 36  37  40 0
 6-311+G(2d,p)
 ****
 1  2  3  4  5  16  17  18  19  20  21  22  23  24 0
 3-21G
 ****
 26  27  29  30  31  38  39 41  42  43  44  45  46  47  48 0
 3-21G
 ****


