%nproc=1
%NoSave
%Mem=1900MB
#P OB98/GEN NMR

erre ene a

0 1
  C     -743.894     407.681    -663.444
  O     -744.866     408.698    -663.524
  H     -743.704     407.288    -664.448
  H     -744.263     406.862    -662.809
  H     -742.957     408.072    -663.030
  P     -745.191     409.524    -662.191
  C     -747.383     408.284    -661.520
  O     -746.788     409.481    -662.001
  C     -748.869     408.503    -661.236
  O     -749.008     409.437    -660.128
  C     -749.650     409.070    -662.426
  O     -750.952     408.446    -662.460
  C     -749.796     410.542    -662.091
  O     -750.931     411.134    -662.732
  C     -749.862     410.507    -660.554
  N     -749.460     411.787    -659.980
  C     -750.436     412.786    -659.953
  O     -751.569     412.586    -660.400
  N     -750.102     414.027    -659.463
  C     -748.862     414.274    -659.121
  N     -748.590     415.530    -658.673
  C     -747.790     413.265    -659.207
  C     -748.149     412.052    -659.629
  O     -744.917     411.050    -662.618
  O     -744.419     409.115    -660.984
  H     -750.899     410.896    -663.681
  H     -744.591     411.567    -661.858
  H     -746.773     413.531    -658.920
  H     -747.431     411.261    -659.737
  H     -750.878     410.282    -660.227
  H     -748.896     411.077    -662.435
  H     -749.159     408.893    -663.390
  H     -749.304     407.550    -660.895
  H     -749.345     416.196    -658.639
  H     -746.881     407.992    -660.592
  H     -747.667     415.830    -658.418
  H     -747.243     407.491    -662.265
  P     -751.052     407.017    -663.143
  C     -750.198     407.846    -665.455
  O     -751.257     407.229    -664.727
  O     -752.467     406.451    -662.654
  O     -749.935     406.085    -662.759
  H     -752.342     405.741    -661.991
  H     -750.471     407.921    -666.487
  H     -749.311     407.255    -665.363
  H     -750.018     408.825    -665.062

 6  7  8  9  10  11  12  13  14  15  16  26  30  31  32  33  35 0
 6-311+G(2d,p)
 ****
 37  38 0
 6-311+G(2d,p)
 ****
 1  2  3  4  5  17  18  19  20  21  22  23  24  25 0
 3-21G
 ****
 27  28  29  34  36  39  40  41  42  43  44  45  46 0
 3-21G
 ****


