%nproc=1
%NoSave
%Mem=1900MB
#P OB98/GEN NMR

erre ene a

0 1
  C       41.639     -68.855    -510.106
  O       43.035     -68.536    -510.082
  P       43.678     -67.356    -510.952
  C       45.360     -68.965    -512.065
  O       44.362     -67.968    -512.268
  C       45.973     -69.425    -513.389
  O       44.965     -70.016    -514.239
  C       46.601     -68.315    -514.227
  O       47.861     -67.926    -513.696
  C       46.670     -68.976    -515.596
  O       47.823     -69.826    -515.709
  C       45.368     -69.811    -515.610
  N       44.306     -69.187    -516.390
  C       44.143     -69.649    -517.700
  O       44.898     -70.503    -518.158
  N       43.123     -69.116    -518.461
  C       42.400     -68.156    -517.984
  N       41.408     -67.670    -518.781
  C       42.602     -67.572    -516.639
  C       43.567     -68.135    -515.909
  O       44.570     -66.441    -510.182
  O       42.422     -66.544    -511.533
  H       47.695     -70.544    -515.056
  H       42.666     -65.597    -511.635
  H       41.997     -66.752    -516.292
  H       43.780     -67.772    -514.904
  H       45.561     -70.813    -516.017
  H       46.727     -68.249    -516.418
  H       45.924     -67.452    -514.265
  H       46.717     -70.200    -513.163
  H       41.287     -68.092    -519.690
  H       44.890     -69.822    -511.569
  H       40.784     -66.923    -518.506
  H       46.134     -68.555    -511.406
  P       48.014     -66.492    -512.989
  C       49.549     -65.395    -514.731
  O       48.259     -65.404    -514.142
  O       48.974     -66.445    -511.846
  O       46.524     -66.147    -512.503
  H       46.573     -65.614    -511.686
  H       49.473     -64.935    -515.720
  H       49.942     -66.415    -514.836
  H       50.228     -64.810    -514.104
  H       41.449     -69.676    -509.446
  H       41.352     -69.123    -511.101
  H       41.073     -68.004    -509.789

 3  4  5  6  7  8  9  10  11  12  13  23  27  28  29  30  32 0
 6-311+G(2d,p)
 ****
 34  35 0
 6-311+G(2d,p)
 ****
 1  2  14  15  16  17  18  19  20  21  22  24  25  26 0
 3-21G
 ****
 31  33  36  37  38  39  40  41  42  43  44  45  46 0
 3-21G
 ****


