%nproc=1
%NoSave
%Mem=1900MB
#P OB98/GEN NMR

erre ene a

0 1
  C      108.437     256.975     982.086
  O      108.644     257.928     983.111
  H      107.376     256.711     982.070
  H      109.026     256.077     982.272
  H      108.707     257.410     981.116
  P      110.153     258.428     983.333
  C      108.955     260.356     984.576
  O      110.056     259.459     984.560
  C      108.697     260.858     985.998
  O      109.902     261.424     986.557
  C      107.622     261.944     986.098
  O      106.330     261.367     986.131
  C      107.981     262.578     987.439
  O      107.448     261.785     988.504
  C      109.525     262.502     987.449
  N      112.103     266.661     989.013
  C      111.396     265.742     989.689
  N      110.692     264.688     989.217
  C      110.765     264.641     987.873
  C      111.449     265.517     987.039
  C      112.147     266.569     987.662
  N      112.866     267.520     986.967
  N      111.300     265.163     985.720
  C      110.592     264.050     985.753
  N      110.214     263.710     987.028
  O      110.854     258.924     982.109
  O      110.812     257.139     984.019
  H      107.876     260.906     988.460
  H      110.192     256.743     984.662
  H      111.396     265.855     990.776
  H      110.339     263.440     984.883
  H      109.908     262.252     988.442
  H      107.576     263.588     987.543
  H      107.729     262.690     985.305
  H      108.423     259.986     986.621
  H      108.046     259.854     984.190
  H      113.160     268.337     987.460
  H      112.786     267.518     985.949
  H      109.194     261.201     983.916
  P      105.205     261.788     985.064
  C      104.479     259.319     984.953
  O      104.066     260.664     985.196
  O      105.716     262.045     983.690
  O      104.505     263.075     985.723
  H      104.005     263.566     985.034
  H      103.642     258.662     985.069
  H      105.243     259.049     985.651
  H      104.861     259.238     983.957

 6  7  8  9  10  11  12  13  14  15  25  28  32  33  34  35 0
 6-311+G(2d,p)
 ****
 36  39  40 0
 6-311+G(2d,p)
 ****
 1  2  3  4  5  16  17  18  19  20  21  22  23  24 0
 3-21G
 ****
 26  27  29  30  31  37  38  41  42  43  44  45  46  47 0
 3-21G
 ****
 48 0
 3-21G
 ****


