%nproc=1
%NoSave
%Mem=1900MB
#P OB98/GEN NMR

erre ene a

0 1
  C     -284.026    -132.924      38.440
  O     -284.019    -131.982      37.379
  P     -283.440    -132.461      35.960
  C     -281.920    -130.323      36.174
  O     -282.057    -131.675      35.765
  C     -280.555    -130.108      36.836
  O     -280.372    -131.060      37.905
  C     -279.364    -130.304      35.909
  O     -279.173    -129.191      35.050
  C     -278.242    -130.533      36.917
  O     -277.782    -129.275      37.444
  C     -278.963    -131.338      38.016
  N     -278.701    -132.777      37.941
  C     -277.362    -133.155      37.902
  O     -276.432    -132.351      37.930
  N     -277.127    -134.504      37.812
  C     -278.073    -135.477      37.691
  O     -277.806    -136.666      37.569
  C     -279.471    -135.012      37.704
  C     -279.714    -133.707      37.827
  O     -284.465    -131.738      34.967
  O     -283.369    -133.945      35.826
  H     -284.843    -130.930      35.360
  H     -278.493    -128.943      38.026
  H     -276.164    -134.806      37.806
  H     -280.249    -135.756      37.602
  H     -280.737    -133.345      37.826
  H     -278.658    -130.984      39.009
  H     -277.375    -131.039      36.476
  H     -279.507    -131.213      35.310
  H     -280.543    -129.099      37.269
  H     -282.715    -130.084      36.887
  H     -282.025    -129.674      35.299
  P     -279.350    -129.464      33.475
  C     -276.805    -128.882      33.328
  O     -277.874    -129.687      32.888
  O     -279.764    -128.006      32.953
  O     -280.338    -130.539      33.158
  H     -279.244    -127.296      33.364
  H     -275.867    -129.394      33.108
  H     -276.863    -128.693      34.405
  H     -276.822    -127.930      32.788
  H     -284.436    -132.470      39.318
  H     -283.025    -133.245      38.639
  H     -284.623    -133.768      38.164

 3  4  5  6  7  8  9  10  11  12  13  24  28  29  30  31  32 0
 6-311+G(2d,p)
 ****
 33  34 0
 6-311+G(2d,p)
 ****
 1  2  14  15  16  17  18  19  20  21  22  23  25  26  27 0
 3-21G
 ****
 35  36  37  38  39  40  41  42  43  44  45 0
 3-21G
 ****


