%nproc=1
%NoSave
%Mem=1900MB
#P OB98/GEN NMR

erre ene a

0 1
  C     -488.934      80.600     413.961
  O     -489.129      82.004     413.972
  H     -488.592      80.306     412.967
  H     -489.873      80.086     414.179
  H     -488.174      80.324     414.697
  P     -489.670      82.640     415.339
  C     -487.555      83.747     416.310
  O     -488.400      82.605     416.327
  C     -486.095      83.331     416.118
  O     -485.938      82.834     414.762
  C     -485.103      84.478     416.310
  O     -483.933      83.985     416.963
  C     -484.760      84.900     414.891
  O     -483.480      85.525     414.802
  C     -484.866      83.571     414.143
  N     -483.010      85.502     409.805
  C     -482.454      85.317     411.020
  N     -483.016      84.779     412.117
  C     -484.272      84.369     411.856
  C     -484.969      84.491     410.671
  C     -484.286      85.097     409.606
  N     -484.849      85.314     408.371
  N     -486.250      83.988     410.811
  C     -486.318      83.555     412.055
  N     -485.149      83.778     412.733
  O     -490.920      82.038     415.885
  O     -489.768      84.191     414.963
  H     -483.290      85.707     413.860
  H     -488.980      84.488     414.468
  H     -481.426      85.654     411.128
  H     -487.184      83.090     412.514
  H     -483.947      82.976     414.208
  H     -485.510      85.611     414.525
  H     -485.526      85.307     416.885
  H     -485.874      82.496     416.790
  H     -487.654      84.303     417.251
  H     -484.284      85.744     407.651
  H     -485.794      85.005     408.197
  H     -487.878      84.393     415.492
  P     -483.912      83.942     418.565
  C     -482.900      81.674     419.263
  O     -484.093      82.418     419.040
  O     -484.784      84.940     419.255
  O     -482.367      84.218     418.893
  H     -482.307      84.773     419.697
  H     -483.151      80.681     419.573
  H     -482.320      82.150     420.026
  H     -482.332      81.631     418.357

 6  7  8  9  10  11  12  13  14  15  25  28  32  33  34  35 0
 6-311+G(2d,p)
 ****
 36  39  40 0
 6-311+G(2d,p)
 ****
 1  2  3  4  5  16  17  18  19  20  21  22  23  24 0
 3-21G
 ****
 26  27  29  30  31  37  38  41  42  43  44  45  46  47 0
 3-21G
 ****
 48 0
 3-21G
 ****


