%nproc=1
%NoSave
%Mem=1900MB
#P OB98/GEN NMR

erre ene a

0 1
  C     -104.983      21.829     130.433
  O     -105.000      21.833     129.020
  H     -104.220      21.121     130.771
  H     -105.955      21.511     130.818
  H     -104.738      22.823     130.814
  P     -105.925      22.942     128.312
  C     -108.214      21.695     128.630
  O     -107.375      22.782     128.981
  C     -109.688      22.103     128.716
  O     -110.016      22.369     130.105
  C     -110.030      23.359     127.909
  O     -111.334      23.195     127.346
  C     -110.048      24.462     128.953
  O     -110.848      25.571     128.541
  C     -110.552      23.705     130.192
  N     -110.160      24.359     131.441
  C     -110.970      25.412     131.883
  O     -111.944      25.767     131.217
  N     -110.632      26.070     133.037
  C     -109.535      25.750     133.664
  N     -109.246      26.454     134.793
  C     -108.627      24.679     133.209
  C     -109.002      24.027     132.108
  O     -106.109      22.326     126.846
  O     -105.355      24.321     128.337
  H     -111.757      25.238     128.365
  H     -106.258      21.363     126.844
  H     -107.719      24.461     133.758
  H     -108.393      23.218     131.708
  H     -111.647      23.626     130.175
  H     -109.028      24.828     129.125
  H     -109.314      23.571     127.114
  H     -110.304      21.250     128.405
  H     -109.885      27.193     135.064
  H     -108.032      20.843     129.294
  H     -108.398      26.326     135.329
  H     -107.966      21.391     127.607
  P     -111.498      22.400     125.964
  C     -110.738      24.327     124.421
  O     -110.473      23.009     124.888
  O     -112.901      22.236     125.473
  O     -110.838      20.972     126.292
  H     -111.378      20.285     125.846
  H     -109.987      24.613     123.714
  H     -110.727      25.007     125.247
  H     -111.699      24.352     123.951

 6  7  8  9  10  11  12  13  14  15  16  26  30  31  32  33  35 0
 6-311+G(2d,p)
 ****
 37  38 0
 6-311+G(2d,p)
 ****
 1  2  3  4  5  17  18  19  20  21  22  23  24  25 0
 3-21G
 ****
 27  28  29  34  36  39  40  41  42  43  44  45  46 0
 3-21G
 ****


