%nproc=1
%NoSave
%Mem=1900MB
#P OB98/GEN NMR

erre ene a

0 1
  C     -228.408    -332.704    -441.450
  O     -229.266    -332.637    -442.585
  P     -230.214    -333.902    -442.873
  C     -229.915    -333.638    -445.438
  O     -229.754    -334.478    -444.299
  C     -228.718    -333.772    -446.375
  O     -227.510    -333.352    -445.711
  C     -228.444    -335.188    -446.860
  O     -229.275    -335.561    -447.951
  C     -227.000    -335.074    -447.307
  O     -226.943    -334.452    -448.607
  C     -226.409    -334.127    -446.250
  N     -221.886    -335.157    -444.093
  C     -222.216    -334.484    -445.212
  N     -223.445    -334.259    -445.730
  C     -224.391    -334.857    -444.982
  C     -224.196    -335.614    -443.835
  C     -222.873    -335.747    -443.377
  N     -222.538    -336.416    -442.216
  N     -225.406    -336.064    -443.344
  C     -226.306    -335.585    -444.170
  N     -225.741    -334.839    -445.173
  O     -231.634    -333.223    -443.187
  O     -230.299    -334.890    -441.756
  H     -227.490    -333.641    -448.564
  H     -232.354    -333.858    -443.017
  H     -221.385    -334.049    -445.767
  H     -227.375    -335.750    -444.085
  H     -225.689    -333.421    -446.676
  H     -226.498    -336.044    -447.394
  H     -228.512    -335.913    -446.031
  H     -228.884    -333.102    -447.233
  H     -230.000    -332.596    -445.111
  H     -221.605    -336.314    -441.860
  H     -223.292    -336.681    -441.584
  H     -230.845    -333.919    -445.957
  P     -230.377    -336.696    -447.671
  C     -230.137    -337.497    -450.137
  O     -230.091    -337.837    -448.765
  O     -231.735    -336.017    -448.173
  O     -230.456    -337.147    -446.250
  H     -232.502    -336.398    -447.709
  H     -229.627    -338.276    -450.708
  H     -229.638    -336.540    -450.325
  H     -231.181    -337.440    -450.474
  H     -227.838    -331.801    -441.380
  H     -227.745    -333.537    -441.553
  H     -228.997    -332.824    -440.565

 3  4  5  6  7  8  9  10  11  12  22  25  29  30  31  32 0
 6-311+G(2d,p)
 ****
 33  36  37 0
 6-311+G(2d,p)
 ****
 1  2  13  14  15  16  17  18  19  20  21  23  24  26 0
 3-21G
 ****
 27  28  34  35  38  39  40  41  42  43  44  45  46  47  48 0
 3-21G
 ****


