%nproc=1
%NoSave
%Mem=1900MB
#P OB98/GEN NMR

erre ene a

0 1
  C      632.437     209.565    -130.400
  O      632.509     210.653    -131.300
  H      633.451     209.219    -130.183
  H      631.880     208.742    -130.858
  H      631.961     209.862    -129.464
  P      631.174     211.463    -131.642
  C      632.057     213.857    -131.245
  O      631.216     212.815    -130.777
  C      632.092     215.015    -130.246
  O      630.779     215.648    -130.220
  C      632.425     214.597    -128.796
  O      633.097     215.709    -128.181
  C      631.031     214.404    -128.229
  O      631.027     214.277    -126.830
  C      630.346     215.644    -128.842
  N      628.885     215.649    -128.750
  C      628.290     216.617    -127.950
  O      628.902     217.472    -127.321
  N      626.914     216.581    -127.895
  C      626.114     215.699    -128.558
  O      624.895     215.730    -128.495
  C      626.803     214.697    -129.379
  C      628.135     214.714    -129.439
  O      629.903     210.689    -131.539
  O      631.423     211.992    -133.135
  H      630.931     211.428    -133.767
  H      631.406     213.408    -126.589
  H      626.475     217.279    -127.332
  H      626.192     213.967    -129.905
  H      628.674     213.995    -130.044
  H      630.738     216.555    -128.369
  H      630.593     213.486    -128.612
  H      633.058     213.711    -128.747
  H      632.802     215.775    -130.612
  H      631.668     214.214    -132.209
  H      633.072     213.464    -131.399
  P      634.656     215.699    -127.808
  C      635.338     216.355    -130.214
  O      635.497     215.425    -129.162
  O      635.006     214.778    -126.685
  O      635.013     217.225    -127.433
  H      635.777     217.236    -126.833
  H      635.944     216.060    -131.045
  H      635.638     217.326    -129.880
  H      634.311     216.383    -130.513

 6  7  8  9  10  11  12  13  14  15  16  27  31  32  33  34  35 0
 6-311+G(2d,p)
 ****
 36  37 0
 6-311+G(2d,p)
 ****
 1  2  3  4  5  17  18  19  20  21  22  23  24  25 0
 3-21G
 ****
 26  28  29  30  38  39  40  41  42  43  44  45 0
 3-21G
 ****


