%nproc=1
%NoSave
%Mem=1900MB
#P OB98/GEN NMR

erre ene a

0 1
  C      -71.043     165.233     159.280
  O      -70.010     164.583     158.535
  P      -69.807     163.002     158.696
  C      -71.459     161.972     157.003
  O      -70.104     162.292     157.287
  C      -71.633     161.572     155.528
  O      -71.324     162.706     154.672
  C      -70.726     160.404     155.113
  O      -71.433     159.350     154.459
  C      -69.633     161.076     154.299
  O      -68.994     160.191     153.392
  C      -70.357     162.283     153.692
  N      -69.427     163.358     153.333
  C      -68.852     163.288     152.069
  O      -69.031     162.346     151.299
  N      -68.006     164.313     151.738
  C      -67.626     165.333     152.560
  O      -66.829     166.201     152.231
  C      -68.218     165.320     153.907
  C      -69.077     164.348     154.225
  O      -70.477     162.377     159.873
  O      -68.210     162.861     158.817
  H      -68.308     160.693     152.899
  H      -68.018     162.162     159.475
  H      -67.594     164.286     150.817
  H      -67.923     166.101     154.592
  H      -69.515     164.307     155.213
  H      -70.895     162.000     152.780
  H      -68.862     161.440     154.991
  H      -70.278     159.917     155.987
  H      -72.687     161.307     155.387
  H      -72.088     162.838     157.211
  H      -71.793     161.180     157.681
  P      -71.124     157.792     154.654
  C      -72.709     157.097     156.581
  O      -72.452     157.079     155.193
  O      -69.883     157.468     155.414
  O      -71.004     157.259     153.145
  H      -70.273     156.615     153.091
  H      -73.408     156.289     156.818
  H      -73.171     158.051     156.856
  H      -71.791     156.954     157.160
  H      -71.040     166.279     159.056
  H      -70.871     165.092     160.327
  H      -71.991     164.814     159.015

 3  4  5  6  7  8  9  10  11  12  13  23  28  29  30  31  32 0
 6-311+G(2d,p)
 ****
 33  34 0
 6-311+G(2d,p)
 ****
 1  2  14  15  16  17  18  19  20  21  22  24  25  26  27 0
 3-21G
 ****
 35  36  37  38  39  40  41  42  43  44  45 0
 3-21G
 ****


