%nproc=1
%NoSave
%Mem=1900MB
#P OB98/GEN NMR

erre ene a

0 1
  C      -56.592       1.566      55.881
  O      -55.879       2.645      55.269
  P      -55.748       3.997      56.121
  C      -57.334       5.883      56.939
  O      -57.183       4.710      56.151
  C      -58.194       6.908      56.198
  O      -57.566       7.345      54.973
  C      -59.555       6.365      55.780
  O      -60.431       6.277      56.890
  C      -59.962       7.394      54.730
  O      -60.465       8.584      55.360
  C      -58.620       7.699      54.044
  N      -59.268       7.846      48.971
  C      -59.563       8.735      49.945
  N      -59.361       8.620      51.274
  C      -58.779       7.445      51.567
  C      -58.417       6.443      50.682
  C      -58.688       6.675      49.323
  N      -58.401       5.763      48.332
  N      -57.847       5.382      51.355
  C      -57.887       5.727      52.626
  N      -58.431       6.971      52.803
  O      -54.870       4.945      55.177
  O      -55.108       3.804      57.456
  H      -60.971       9.079      54.684
  H      -53.974       5.047      55.547
  H      -60.024       9.661      49.614
  H      -57.537       5.115      53.448
  H      -58.506       8.764      53.813
  H      -60.738       7.029      54.051
  H      -59.442       5.379      55.315
  H      -58.326       7.779      56.853
  H      -56.357       6.316      57.165
  H      -58.699       5.975      47.393
  H      -58.049       4.853      48.592
  H      -57.786       5.607      57.898
  P      -60.647       4.836      57.558
  C      -61.966       2.751      56.842
  O      -61.505       4.034      56.459
  O      -61.735       5.160      58.681
  O      -59.402       4.164      58.026
  H      -62.454       5.721      58.337
  H      -62.559       2.335      56.022
  H      -62.595       2.826      57.733
  H      -61.118       2.090      57.036
  H      -56.609       0.728      55.217
  H      -57.595       1.875      56.091
  H      -56.105       1.289      56.793

 3  4  5  6  7  8  9  10  11  12  22  25  29  30  31  32 0
 6-311+G(2d,p)
 ****
 33  36  37 0
 6-311+G(2d,p)
 ****
 1  2  13  14  15  16  17  18  19  20  21  23  24  26 0
 3-21G
 ****
 27  28  34  35  38  39  40  41  42  43  44  45  46  47  48 0
 3-21G
 ****


