%nproc=1
%NoSave
%Mem=1900MB
#P OB98/GEN NMR

erre ene a

0 1
  C      453.988    -898.600    -894.470
  O      453.636    -898.300    -895.810
  H      455.085    -898.650    -894.390
  H      453.567    -899.540    -894.140
  H      453.642    -897.780    -893.810
  P      452.086    -898.270    -896.200
  C      451.867    -895.960    -897.340
  O      451.636    -896.740    -896.170
  C      453.008    -894.970    -897.100
  O      454.250    -895.700    -896.850
  C      453.271    -894.020    -898.310
  O      453.795    -892.810    -897.790
  C      454.372    -894.800    -899.060
  O      455.005    -894.010    -900.000
  C      455.221    -895.290    -897.850
  N      456.107    -896.380    -898.240
  C      457.459    -896.190    -897.930
  O      457.840    -895.150    -897.360
  N      458.362    -897.180    -898.240
  C      457.932    -898.240    -898.910
  N      458.876    -899.160    -899.230
  C      456.521    -898.450    -899.320
  C      455.674    -897.460    -898.950
  O      451.204    -899.210    -895.440
  O      452.085    -898.630    -897.770
  H      455.354    -893.190    -899.600
  H      451.782    -899.550    -897.910
  H      456.249    -899.310    -899.870
  H      454.617    -897.540    -899.200
  H      455.802    -894.480    -897.440
  H      453.950    -895.660    -899.600
  H      452.383    -893.850    -898.920
  H      452.804    -894.400    -896.210
  H      459.823    -898.970    -898.950
  H      450.931    -895.420    -897.560
  H      458.676    -900.000    -899.750
  H      452.124    -896.620    -898.180
  P      452.837    -891.680    -897.130
  C      453.607    -891.320    -894.680
  O      452.675    -891.990    -895.560
  O      451.542    -891.500    -897.830
  O      453.704    -890.330    -897.180
  H      453.112    -889.580    -897.240
  H      453.405    -891.600    -893.667
  H      453.499    -890.261    -894.785
  H      454.606    -891.604    -894.936

 6  7  8  9  10  11  12  13  14  15  16  26  30  31  32  33  35 0
 6-311+G(2d,p)
 ****
 37  38 0
 6-311+G(2d,p)
 ****
 1  2  3  4  5  17  18  19  20  21  22  23  24  25 0
 3-21G
 ****
 27  28  29  34  36  39  40  41  42  43  44  45  46 0
 3-21G
 ****


