%nproc=1
%NoSave
%Mem=1900MB
#P OB98/GEN NMR

erre ene a

0 1
  C     -269.625     228.618     117.706
  O     -270.181     229.916     117.721
  H     -268.555     228.694     117.919
  H     -269.752     228.161     116.721
  H     -270.089     227.987     118.471
  P     -271.768     230.080     117.569
  C     -271.318     231.197     115.290
  O     -272.013     231.277     116.530
  C     -272.125     231.893     114.196
  O     -271.415     231.834     112.937
  C     -273.487     231.258     113.936
  O     -274.405     231.598     114.956
  C     -273.801     231.828     112.561
  O     -274.281     233.179     112.660
  C     -272.408     231.797     111.885
  N     -272.220     230.625     111.026
  C     -272.291     230.853     109.656
  O     -272.499     231.961     109.165
  N     -272.154     229.746     108.860
  C     -272.052     228.454     109.298
  O     -272.155     227.480     108.557
  C     -271.911     228.283     110.752
  C     -272.014     229.359     111.537
  O     -272.535     230.185     118.844
  O     -272.201     228.783     116.730
  H     -272.579     228.120     117.336
  H     -273.696     233.634     113.299
  H     -272.251     229.891     107.864
  H     -271.763     227.281     111.135
  H     -271.941     229.253     112.616
  H     -272.258     232.696     111.274
  H     -274.568     231.254     112.037
  H     -273.384     230.168     113.852
  H     -272.235     232.949     114.473
  H     -271.189     230.139     115.031
  H     -270.331     231.660     115.401
  P     -275.245     230.472     115.724
  C     -276.789     229.598     113.875
  O     -276.698     230.390     115.051
  O     -275.258     230.601     117.211
  O     -274.561     229.095     115.277
  H     -274.320     228.584     116.073
  H     -277.795     229.613     113.512
  H     -276.506     228.591     114.100
  H     -276.134     229.994     113.127

 6  7  8  9  10  11  12  13  14  15  16  27  31  32  33  34  35 0
 6-311+G(2d,p)
 ****
 36  37 0
 6-311+G(2d,p)
 ****
 1  2  3  4  5  17  18  19  20  21  22  23  24  25 0
 3-21G
 ****
 26  28  29  30  38  39  40  41  42  43  44  45 0
 3-21G
 ****


