%nproc=1
%NoSave
%Mem=1900MB
#P OB98/GEN NMR

erre ene a

0 1
  C      -29.367    -392.743     295.285
  O      -28.008    -393.130     295.509
  P      -27.422    -392.948     296.992
  C      -28.145    -395.382     297.570
  O      -28.136    -394.013     297.953
  C      -27.053    -396.146     298.317
  O      -27.331    -396.211     299.730
  C      -26.923    -397.595     297.872
  O      -26.222    -397.678     296.645
  C      -26.181    -398.224     299.049
  O      -24.758    -398.156     298.878
  C      -26.637    -397.357     300.248
  N      -27.460    -398.094     301.191
  C      -26.787    -399.018     302.003
  O      -25.574    -399.184     301.873
  N      -27.512    -399.742     302.914
  C      -28.801    -399.580     302.992
  N      -29.464    -400.330     303.909
  C      -29.550    -398.637     302.140
  C      -28.826    -397.936     301.267
  O      -28.037    -391.550     297.461
  O      -25.929    -392.941     297.053
  H      -24.558    -398.737     298.110
  H      -27.421    -391.091     298.054
  H      -30.620    -398.545     302.232
  H      -29.292    -397.218     300.598
  H      -25.763    -396.977     300.791
  H      -26.441    -399.286     299.158
  H      -27.921    -398.048     297.774
  H      -26.099    -395.623     298.169
  H      -28.916    -400.967     304.475
  H      -27.996    -395.474     296.491
  H      -30.463    -400.289     304.049
  H      -29.139    -395.802     297.788
  P      -27.077    -397.714     295.296
  C      -26.435    -395.261     294.889
  O      -27.492    -396.183     295.026
  O      -28.465    -398.346     295.797
  O      -26.507    -398.462     294.139
  H      -29.052    -398.511     295.034
  H      -26.834    -394.318     294.508
  H      -25.685    -395.637     294.181
  H      -25.973    -395.075     295.862
  H      -29.623    -392.917     294.261
  H      -29.484    -391.703     295.510
  H      -30.011    -393.319     295.917

 3  4  5  6  7  8  9  10  11  12  13  21  23  27  28  29  30  32 0
 6-311+G(2d,p)
 ****
 34  35 0
 6-311+G(2d,p)
 ****
 1  2  14  15  16  17  18  19  20  22  24  25  26 0
 3-21G
 ****
 31  33  36  37  38  39  40  41  42  43  44  45  46 0
 3-21G
 ****


