%nproc=1
%NoSave
%Mem=1900MB
#P OB98/GEN NMR

erre ene a

0 1
  C     -130.253      61.600     152.344
  O     -131.269      62.304     151.646
  P     -131.298      63.903     151.806
  C     -131.042      65.331     153.973
  O     -131.657      64.212     153.339
  C     -131.991      65.935     155.005
  O     -133.214      66.358     154.369
  C     -132.421      64.978     156.110
  O     -131.383      64.792     157.061
  C     -133.653      65.701     156.644
  O     -133.255      66.778     157.508
  C     -134.278      66.261     155.353
  N     -138.971      64.386     156.212
  C     -138.167      65.181     156.956
  N     -136.921      65.618     156.669
  C     -136.523      65.161     155.471
  C     -137.222      64.327     154.614
  C     -138.506      63.937     155.022
  N     -139.325      63.123     154.262
  N     -136.481      64.050     153.482
  C     -135.355      64.714     153.652
  N     -135.337      65.413     154.828
  O     -132.624      64.324     151.022
  O     -130.084      64.611     151.278
  H     -134.070      67.158     157.895
  H     -132.513      65.187     150.586
  H     -138.578      65.509     157.908
  H     -134.527      64.724     152.949
  H     -134.696      67.267     155.490
  H     -134.319      65.048     157.213
  H     -132.710      64.008     155.682
  H     -131.500      66.820     155.438
  H     -130.804      66.092     153.221
  H     -140.165      62.771     154.695
  H     -138.925      62.675     153.447
  H     -130.106      65.005     154.440
  P     -131.064      63.286     157.517
  C     -132.465      61.491     158.716
  O     -132.364      62.860     158.367
  O     -129.964      63.516     158.657
  O     -130.679      62.358     156.413
  H     -130.235      64.201     159.291
  H     -133.358      61.354     159.332
  H     -131.587      61.180     159.290
  H     -132.558      60.882     157.812
  H     -130.349      60.552     152.151
  H     -130.351      61.780     153.394
  H     -129.293      61.937     152.013

 3  4  5  6  7  8  9  10  11  12  22  25  29  30  31  32 0
 6-311+G(2d,p)
 ****
 33  36  37 0
 6-311+G(2d,p)
 ****
 1  2  13  14  15  16  17  18  19  20  21  23  24  26 0
 3-21G
 ****
 27  28  34  35  38  39  40  41  42  43  44  45  46  47  48 0
 3-21G
 ****


