%nproc=1
%NoSave
%Mem=1900MB
#P OB98/GEN NMR

erre ene a

0 1
  C       -8.985     -33.827      94.655
  O       -9.839     -34.860      95.103
  H       -8.375     -34.206      93.831
  H       -8.324     -33.509      95.465
  H       -9.570     -32.975      94.298
  P      -10.906     -34.482      96.238
  C      -13.169     -34.186      94.984
  O      -12.322     -35.046      95.730
  C      -14.079     -35.015      94.076
  O      -13.269     -35.603      93.022
  C      -14.784     -36.162      94.808
  O      -16.099     -36.322      94.268
  C      -13.935     -37.371      94.458
  O      -14.628     -38.607      94.560
  C      -13.510     -37.025      93.027
  N      -12.317     -37.754      92.604
  C      -12.478     -39.084      92.229
  O      -13.560     -39.666      92.157
  N      -11.322     -39.757      91.927
  C      -10.056     -39.252      91.985
  O       -9.058     -39.913      91.725
  C       -9.950     -37.845      92.396
  C      -11.066     -37.172      92.683
  O      -11.068     -32.898      96.080
  O      -10.544     -34.887      97.626
  H      -10.427     -32.431      96.650
  H      -15.262     -38.660      93.816
  H      -11.421     -40.722      91.651
  H       -8.960     -37.412      92.462
  H      -11.021     -36.137      93.003
  H      -14.332     -37.221      92.327
  H      -13.061     -37.419      95.119
  H      -14.844     -36.006      95.885
  H      -14.804     -34.348      93.593
  H      -12.554     -33.521      94.369
  H      -13.769     -33.583      95.673
  P      -17.337     -35.925      95.212
  C      -17.000     -33.333      95.279
  O      -17.750     -34.431      94.790
  O      -16.615     -35.755      96.626
  O      -18.441     -36.929      95.177
  H      -15.727     -35.364      96.564
  H      -17.413     -32.422      94.899
  H      -15.983     -33.425      94.959
  H      -17.037     -33.323      96.348

 6  7  8  9  10  11  12  13  14  15  16  27  31  32  33  34  35 0
 6-311+G(2d,p)
 ****
 36  37 0
 6-311+G(2d,p)
 ****
 1  2  3  4  5  17  18  19  20  21  22  23  24  25 0
 3-21G
 ****
 26  28  29  30  38  39  40  41  42  43  44  45 0
 3-21G
 ****


