%nproc=1
%NoSave
%Mem=1900MB
#P OB98/GEN NMR

erre ene a

0 1
  C       34.359     -37.616      29.715
  O       32.974     -37.379      29.560
  H       34.495     -38.596      30.180
  H       34.797     -36.854      30.364
  H       34.858     -37.613      28.742
  P       32.556     -36.069      28.726
  C       32.889     -34.306      30.640
  O       33.343     -34.855      29.416
  C       33.885     -33.273      31.167
  O       33.223     -32.452      32.159
  C       35.124     -33.887      31.819
  O       36.254     -33.073      31.504
  C       34.822     -33.802      33.305
  O       36.012     -33.810      34.092
  C       33.991     -32.513      33.378
  N       33.127     -32.475      34.555
  C       33.739     -32.178      35.776
  O       34.954     -31.984      35.828
  N       32.974     -32.150      36.914
  C       31.716     -32.462      36.850
  N       31.016     -32.436      38.016
  C       31.039     -32.834      35.593
  C       31.793     -32.809      34.495
  O       31.040     -35.858      29.192
  O       32.740     -36.199      27.251
  H       35.751     -33.754      35.038
  H       30.901     -36.006      30.142
  H       29.993     -33.100      35.593
  H       31.375     -33.061      33.527
  H       34.647     -31.633      33.403
  H       34.212     -34.661      33.612
  H       35.314     -34.913      31.509
  H       34.161     -32.607      30.341
  H       31.521     -32.195      38.859
  H       32.757     -35.097      31.385
  H       30.048     -32.710      38.092
  H       31.915     -33.839      30.462
  P       37.357     -33.626      30.483
  C       39.010     -34.704      32.143
  O       38.052     -34.925      31.120
  O       38.301     -32.610      29.933
  O       36.465     -34.262      29.306
  H       36.907     -34.067      28.457
  H       39.395     -35.644      32.480
  H       38.546     -34.194      32.962
  H       39.811     -34.107      31.759

 6  7  8  9  10  11  12  13  14  15  16  26  30  31  32  33  35 0
 6-311+G(2d,p)
 ****
 37  38 0
 6-311+G(2d,p)
 ****
 1  2  3  4  5  17  18  19  20  21  22  23  24  25 0
 3-21G
 ****
 27  28  29  34  36  39  40  41  42  43  44  45  46 0
 3-21G
 ****


