%nproc=1
%NoSave
%Mem=1900MB
#P OB98/GEN NMR

erre ene a

0 1
  C      260.435    -307.435    1135.452
  O      259.329    -306.562    1135.406
  P      257.853    -307.155    1135.163
  C      256.848    -309.110    1133.830
  O      257.937    -308.199    1133.951
  C      257.165    -310.190    1132.788
  O      258.416    -310.847    1133.109
  C      256.116    -311.286    1132.705
  O      254.964    -310.850    1132.014
  C      256.907    -312.403    1132.011
  O      256.932    -312.172    1130.580
  C      258.320    -312.194    1132.598
  N      260.139    -316.858    1133.608
  C      259.791    -316.242    1132.444
  N      259.297    -315.016    1132.266
  C      259.098    -314.407    1133.440
  C      259.348    -314.911    1134.703
  C      259.919    -316.190    1134.772
  N      260.318    -316.797    1135.938
  N      258.983    -314.002    1135.682
  C      258.513    -312.964    1135.021
  N      258.624    -313.141    1133.647
  O      256.770    -306.139    1135.047
  O      257.612    -308.093    1136.444
  H      257.509    -312.852    1130.197
  H      256.830    -307.763    1136.942
  H      259.988    -316.824    1131.531
  H      258.112    -312.066    1135.456
  H      259.104    -312.295    1131.831
  H      256.500    -313.398    1132.177
  H      255.851    -311.634    1133.715
  H      257.287    -309.695    1131.818
  H      255.967    -308.537    1133.518
  H      260.852    -317.664    1135.864
  H      260.450    -316.224    1136.775
  H      256.640    -309.558    1134.806
  P      253.631    -311.724    1132.049
  C      253.446    -314.296    1131.787
  O      253.917    -313.076    1131.229
  O      252.368    -311.003    1131.681
  O      253.565    -312.252    1133.566
  H      252.642    -312.361    1133.845
  H      254.124    -314.591    1132.587
  H      253.430    -315.044    1131.026
  H      252.433    -314.136    1132.197
  H      261.328    -306.870    1135.620
  H      260.514    -307.959    1134.523
  H      260.302    -308.138    1136.248

 3  4  5  6  7  8  9  10  11  12  22  25  29  30  31  32 0
 6-311+G(2d,p)
 ****
 33  36  37 0
 6-311+G(2d,p)
 ****
 1  2  13  14  15  16  17  18  19  20  21  23  24  26 0
 3-21G
 ****
 27  28  34  35  38  39  40  41  42  43  44  45  46  47  48 0
 3-21G
 ****


