%nproc=1
%NoSave
%Mem=1900MB
#P OB98/GEN NMR

erre ene a

0 1
  C      203.344    -337.110    -110.913
  O      203.176    -335.685    -110.923
  P      202.873    -334.980    -112.333
  C      200.279    -334.865    -112.502
  O      201.490    -334.169    -112.214
  C      199.152    -334.449    -111.537
  O      199.418    -334.924    -110.192
  C      198.974    -332.924    -111.433
  O      197.589    -332.658    -111.158
  C      199.795    -332.579    -110.207
  O      199.428    -331.301    -109.675
  C      199.481    -333.778    -109.314
  N      201.999    -331.524    -105.568
  C      201.057    -331.006    -106.452
  N      200.723    -329.713    -106.277
  N      200.506    -331.707    -107.409
  C      200.920    -333.002    -107.423
  C      201.840    -333.627    -106.618
  C      202.461    -332.835    -105.579
  O      203.309    -333.227    -104.768
  N      202.005    -334.946    -106.963
  C      201.191    -335.112    -107.992
  N      200.482    -333.977    -108.283
  O      202.491    -336.229    -113.274
  O      204.029    -334.211    -112.884
  H      199.895    -330.620    -110.208
  H      203.220    -336.384    -113.917
  H      202.402    -330.935    -104.853
  H      201.075    -336.033    -108.550
  H      198.505    -333.683    -108.812
  H      200.860    -332.545    -110.472
  H      201.074    -329.132    -105.532
  H      199.276    -332.362    -112.322
  H      200.013    -329.324    -106.893
  H      198.220    -334.911    -111.878
  H      200.440    -335.944    -112.423
  H      199.998    -334.680    -113.542
  P      196.631    -332.398    -112.420
  C      195.545    -334.752    -112.590
  O      195.386    -333.394    -112.243
  O      197.448    -333.034    -113.652
  O      196.285    -330.965    -112.659
  H      197.184    -332.613    -114.485
  H      195.662    -335.349    -111.678
  H      196.417    -334.909    -113.236
  H      194.655    -335.089    -113.137
  H      203.539    -337.439    -109.914
  H      204.167    -337.377    -111.543
  H      202.452    -337.577    -111.275

 3  4  5  6  7  8  9  10  11  12  23  26  30  31 0
 6-311+G(2d,p)
 ****
 33  35  36  37  38 0
 6-311+G(2d,p)
 ****
 1  2  13  14  15  16  17  18  19  20  21  22  24  25 0
 3-21G
 ****
 27  28  29  32  34  39  40  41  42  43  44  45  46  47  48  49 0
 3-21G
 ****


