%nproc=1
%NoSave
%Mem=1900MB
#P OB98/GEN NMR

erre ene a

0 1
  C      -44.371      14.600      48.010
  O      -45.565      13.846      48.030
  H      -44.556      15.568      48.482
  H      -44.067      14.770      46.974
  H      -43.573      14.087      48.554
  P      -45.444      12.271      47.758
  C      -43.471      11.244      49.095
  O      -44.840      11.619      49.097
  C      -42.862      11.439      50.484
  O      -43.042      12.834      50.877
  C      -43.495      10.561      51.577
  O      -42.471      10.158      52.495
  C      -44.418      11.530      52.292
  O      -44.706      11.120      53.624
  C      -43.605      12.816      52.201
  N      -43.868      17.000      54.959
  C      -42.827      16.113      54.772
  N      -41.696      16.334      55.474
  N      -42.891      15.086      53.966
  C      -44.073      14.990      53.310
  C      -45.179      15.797      53.410
  C      -45.103      16.922      54.320
  O      -45.997      17.730      54.545
  N      -46.203      15.328      52.626
  C      -45.721      14.228      52.071
  N      -44.433      13.982      52.457
  O      -44.230      12.188      46.718
  O      -46.676      11.617      47.230
  H      -43.861      10.892      54.063
  H      -44.576      12.166      45.807
  H      -43.773      17.765      55.605
  H      -46.265      13.573      51.407
  H      -42.781      12.846      52.926
  H      -45.364      11.620      51.745
  H      -41.560      17.121      56.090
  H      -44.015       9.679      51.192
  H      -40.910      15.715      55.315
  H      -41.782      11.262      50.422
  H      -42.928      11.867      48.377
  H      -43.385      10.197      48.786
  P      -42.296       8.592      52.788
  C      -41.722       6.764      51.026
  O      -41.329       7.967      51.672
  O      -43.731       7.991      52.407
  O      -41.929       8.277      54.200
  H      -43.943       7.245      52.998
  H      -40.975       6.481      50.314
  H      -42.654       6.917      50.523
  H      -41.833       5.988      51.754

 6  7  8  9  10  11  12  13  14  15  26  29  33  34 0
 6-311+G(2d,p)
 ****
 36  38  39  40  41 0
 6-311+G(2d,p)
 ****
 1  2  3  4  5  16  17  18  19  20  21  22  23  24  25 0
 3-21G
 ****
 27  28  30  31  32  35  37  42  43  44  45  46  47 0
 3-21G
 ****
 48  49 0
 3-21G
 ****


