%nproc=1
%NoSave
%Mem=1900MB
#P OB98/GEN NMR

erre ene a

0 1
  C      300.164      16.445     -62.497
  O      299.622      16.735     -63.776
  P      300.141      15.873     -65.024
  C      301.874      16.302     -66.925
  O      301.392      16.673     -65.645
  C      302.705      17.437     -67.536
  O      301.818      18.534     -67.873
  C      303.796      18.005     -66.616
  O      304.880      18.415     -67.453
  C      303.129      19.219     -66.007
  O      304.065      20.168     -65.495
  C      302.301      19.709     -67.189
  N      300.734      24.430     -66.225
  C      301.997      23.961     -66.542
  N      302.962      24.898     -66.681
  N      302.289      22.695     -66.713
  C      301.215      21.881     -66.556
  C      299.929      22.216     -66.203
  C      299.612      23.623     -66.051
  O      298.490      24.088     -65.860
  N      299.139      21.105     -66.052
  C      299.933      20.105     -66.397
  N      301.183      20.529     -66.752
  O      298.986      16.076     -66.110
  O      300.426      14.427     -64.748
  H      304.454      19.793     -64.683
  H      298.335      15.346     -66.068
  H      300.568      25.415     -66.120
  H      299.654      19.060     -66.411
  H      302.892      20.304     -67.899
  H      302.481      18.911     -65.172
  H      302.801      25.893     -66.594
  H      304.148      17.290     -65.861
  H      303.892      24.585     -66.949
  H      303.149      17.075     -68.470
  H      301.019      16.105     -67.587
  H      302.465      15.384     -66.847
  P      306.372      18.073     -66.967
  C      308.126      19.145     -65.389
  O      306.806      19.184     -65.900
  O      307.254      18.439     -68.258
  O      306.592      16.649     -66.563
  H      308.030      17.849     -68.308
  H      308.387      20.143     -65.015
  H      308.850      18.857     -66.153
  H      308.171      18.434     -64.555
  H      299.727      17.095     -61.768
  H      301.224      16.593     -62.517
  H      299.951      15.428     -62.241

 3  4  5  6  7  8  9  10  11  12  23  26  30  31 0
 6-311+G(2d,p)
 ****
 33  35  36  37  38 0
 6-311+G(2d,p)
 ****
 1  2  13  14  15  16  17  18  19  20  21  22  24  25 0
 3-21G
 ****
 27  28  29  32  34  39  40  41  42  43  44  45  46  47  48  49 0
 3-21G
 ****


