%nproc=1
%NoSave
%Mem=1900MB
#P OB98/GEN NMR

erre ene a

0 1
  C     -288.566    -436.350     128.386
  O     -289.862    -436.658     128.858
  H     -288.311    -435.335     128.703
  H     -288.548    -436.388     127.294
  H     -287.823    -437.040     128.794
  P     -290.378    -438.173     128.767
  C     -291.694    -438.345     130.979
  O     -291.769    -438.231     129.565
  C     -291.616    -436.962     131.631
  O     -292.813    -436.209     131.264
  C     -291.550    -436.996     133.171
  O     -290.771    -435.869     133.591
  C     -293.013    -436.812     133.529
  O     -293.185    -436.491     134.884
  C     -293.405    -435.751     132.498
  N     -294.844    -435.570     132.363
  C     -295.402    -434.434     132.938
  O     -294.751    -433.570     133.523
  N     -296.762    -434.317     132.825
  C     -297.595    -435.208     132.214
  O     -298.804    -435.043     132.124
  C     -296.950    -436.406     131.653
  C     -295.624    -436.529     131.752
  O     -289.387    -439.220     129.146
  O     -290.838    -438.323     127.240
  H     -290.126    -438.748     126.725
  H     -294.125    -436.282     135.072
  H     -297.183    -433.496     133.235
  H     -297.586    -437.142     131.182
  H     -295.113    -437.399     131.351
  H     -292.941    -434.788     132.739
  H     -293.566    -437.741     133.356
  H     -291.104    -437.916     133.559
  H     -290.761    -436.419     131.211
  H     -290.798    -438.923     131.228
  H     -292.576    -438.881     131.345
  P     -289.251    -435.985     134.092
  C     -288.368    -433.802     133.044
  O     -288.626    -434.515     134.246
  O     -288.414    -436.901     133.256
  O     -289.336    -436.525     135.598
  H     -288.584    -437.123     135.768
  H     -287.956    -432.843     133.280
  H     -289.282    -433.674     132.502
  H     -287.672    -434.352     132.445

 6  7  8  9  10  11  12  13  14  15  16  27  31  32  33  34  35 0
 6-311+G(2d,p)
 ****
 36  37 0
 6-311+G(2d,p)
 ****
 1  2  3  4  5  17  18  19  20  21  22  23  24  25 0
 3-21G
 ****
 26  28  29  30  38  39  40  41  42  43  44  45 0
 3-21G
 ****


