%nproc=1
%NoSave
%Mem=1900MB
#P OB98/GEN NMR

erre ene a

0 1
  C     -811.725    -612.162    -888.755
  O     -812.326    -610.969    -889.245
  H     -810.791    -612.360    -889.285
  H     -811.508    -612.055    -887.695
  H     -812.410    -613.018    -888.885
  P     -812.718    -610.939    -890.785
  C     -811.397    -610.712    -893.005
  O     -811.357    -610.711    -891.605
  C     -810.475    -609.626    -893.555
  O     -809.111    -609.818    -893.065
  C     -810.366    -609.597    -895.085
  O     -811.454    -608.929    -895.685
  C     -809.057    -608.818    -895.265
  O     -809.318    -607.414    -895.035
  C     -808.214    -609.381    -894.115
  N     -804.453    -610.906    -897.255
  C     -805.085    -609.716    -897.105
  N     -806.065    -609.373    -896.255
  C     -806.426    -610.463    -895.505
  C     -805.845    -611.743    -895.525
  C     -804.820    -611.934    -896.455
  N     -804.190    -613.143    -896.615
  N     -806.484    -612.557    -894.615
  C     -807.377    -611.779    -894.025
  N     -807.383    -610.501    -894.515
  O     -813.472    -609.538    -890.955
  O     -813.547    -612.085    -891.275
  H     -809.763    -607.354    -894.175
  H     -814.033    -609.541    -891.755
  H     -804.745    -608.911    -897.765
  H     -808.031    -612.115    -893.225
  H     -807.544    -608.610    -893.675
  H     -808.632    -608.920    -896.225
  H     -810.220    -610.629    -895.495
  H     -810.835    -608.641    -893.185
  H     -812.412    -610.510    -893.345
  H     -803.611    -613.241    -897.445
  H     -804.565    -613.960    -896.115
  H     -811.082    -611.703    -893.395
  P     -811.800    -609.341    -897.205
  C     -810.645    -608.911    -899.515
  O     -810.761    -608.524    -898.125
  O     -813.205    -608.600    -897.465
  O     -811.886    -610.817    -897.455
  H     -813.742    -609.054    -898.145
  H     -809.924    -608.287    -900.000
  H     -811.594    -608.800    -899.997
  H     -810.331    -609.932    -899.576

 6  7  8  9  10  11  12  13  14  15  25  28  32  33  34  35 0
 6-311+G(2d,p)
 ****
 36  39  40 0
 6-311+G(2d,p)
 ****
 1  2  3  4  5  16  17  18  19  20  21  22  23  24 0
 3-21G
 ****
 26  27  29  30  31  37  38  41  42  43  44  45  46  47 0
 3-21G
 ****
 48 0
 3-21G
 ****


