%nproc=1
%NoSave
%Mem=1900MB
#P OB98/GEN NMR

erre ene a

0 1
  C     -115.676    -127.554     154.515
  O     -115.749    -127.539     153.104
  H     -116.060    -126.615     154.926
  H     -116.285    -128.380     154.890
  H     -114.641    -127.705     154.835
  P     -115.001    -126.327     152.365
  C     -117.178    -125.475     151.245
  O     -116.107    -125.186     152.130
  C     -118.502    -125.035     151.858
  O     -118.549    -125.398     153.253
  C     -118.752    -123.532     151.825
  O     -119.194    -123.096     150.544
  C     -119.853    -123.408     152.869
  O     -121.119    -123.765     152.285
  C     -119.439    -124.458     153.912
  N     -119.992    -122.720     158.712
  C     -120.885    -123.214     157.821
  N     -120.670    -123.644     156.563
  C     -119.370    -123.548     156.240
  C     -118.343    -123.066     157.040
  C     -118.697    -122.629     158.330
  N     -117.782    -122.113     159.220
  N     -117.137    -123.129     156.379
  C     -117.423    -123.642     155.199
  N     -118.763    -123.905     155.067
  O     -114.738    -126.894     150.888
  O     -113.735    -125.870     153.008
  H     -121.270    -123.146     151.544
  H     -113.883    -126.551     150.566
  H     -121.913    -123.273     158.174
  H     -116.702    -123.843     154.418
  H     -120.304    -125.033     154.266
  H     -119.950    -122.397     153.271
  H     -117.872    -122.975     152.157
  H     -119.308    -125.577     151.343
  H     -117.209    -126.552     151.052
  H     -118.054    -122.007     160.183
  H     -116.812    -122.059     158.927
  H     -117.005    -124.952     150.297
  P     -118.163    -122.239     149.658
  C     -119.846    -120.314     150.105
  O     -118.478    -120.703     149.998
  O     -118.733    -122.414     148.174
  O     -116.736    -122.660     149.762
  H     -118.011    -122.289     147.525
  H     -119.903    -119.270     150.333
  H     -120.317    -120.876     150.884
  H     -120.344    -120.504     149.177

 6  7  8  9  10  11  12  13  14  15  25  28  32  33  34  35 0
 6-311+G(2d,p)
 ****
 36  39  40 0
 6-311+G(2d,p)
 ****
 1  2  3  4  5  16  17  18  19  20  21  22  23  24 0
 3-21G
 ****
 26  27  29  30  31  37  38  41  42  43  44  45  46  47  48 0
 3-21G
 ****


