%nproc=1
%NoSave
%Mem=1900MB
#P OB98/GEN NMR

erre ene a

0 1
  C      370.369     -42.737     173.634
  O      369.922     -43.091     172.316
  P      368.782     -44.210     172.203
  C      366.727     -44.038     170.602
  O      368.140     -44.140     170.733
  C      366.352     -43.621     169.178
  O      366.692     -42.238     168.942
  C      367.098     -44.404     168.107
  O      366.525     -45.683     167.938
  C      366.950     -43.490     166.891
  O      365.763     -43.804     166.138
  C      366.856     -42.080     167.518
  N      368.007     -41.249     167.204
  C      368.106     -40.821     165.877
  O      367.263     -41.160     165.045
  N      369.172     -40.028     165.519
  C      370.077     -39.725     166.410
  N      371.110     -38.943     165.997
  C      370.016     -40.182     167.817
  C      368.969     -40.935     168.137
  O      367.615     -43.646     173.142
  O      369.229     -45.575     172.629
  H      365.020     -43.654     166.745
  H      367.133     -44.382     173.560
  H      370.799     -39.912     168.516
  H      368.854     -41.316     169.147
  H      365.958     -41.564     167.153
  H      367.798     -43.610     166.197
  H      368.160     -44.493     168.373
  H      365.269     -43.744     169.047
  H      371.120     -38.648     165.029
  H      366.331     -43.317     171.322
  H      371.869     -38.648     166.603
  H      366.278     -45.016     170.857
  P      367.264     -46.933     168.605
  C      366.441     -49.207     169.477
  O      366.181     -48.118     168.604
  O      367.303     -46.518     170.156
  O      368.628     -47.281     168.088
  H      367.828     -47.165     170.666
  H      365.534     -49.832     169.535
  H      366.680     -48.842     170.471
  H      367.263     -49.811     169.088
  H      371.126     -41.984     173.564
  H      370.770     -43.602     174.119
  H      369.544     -42.361     174.202

 3  4  5  6  7  8  9  10  11  12  13  21  23  27  28  29  30  32 0
 6-311+G(2d,p)
 ****
 34  35 0
 6-311+G(2d,p)
 ****
 1  2  14  15  16  17  18  19  20  22  24  25  26 0
 3-21G
 ****
 31  33  36  37  38  39  40  41  42  43  44  45  46 0
 3-21G
 ****


