%nproc=1
%NoSave
%Mem=1900MB
#P OB98/GEN NMR

erre ene a

0 1
  C      -60.784      31.758    -184.998
  O      -60.160      32.297    -183.850
  H      -60.789      32.517    -185.785
  H      -61.817      31.479    -184.770
  H      -60.231      30.883    -185.354
  P      -60.075      31.339    -182.564
  C      -58.304      30.208    -184.083
  O      -59.237      30.048    -183.027
  C      -56.963      29.582    -183.709
  O      -56.338      30.320    -182.633
  C      -57.052      28.132    -183.249
  O      -57.095      27.247    -184.355
  C      -55.770      28.000    -182.438
  O      -54.627      27.774    -183.287
  C      -55.679      29.371    -181.753
  N      -54.726      29.384    -176.795
  C      -53.860      29.396    -177.870
  N      -52.541      29.350    -177.576
  N      -54.248      29.435    -179.116
  C      -55.594      29.444    -179.256
  C      -56.557      29.451    -178.272
  C      -56.111      29.438    -176.894
  O      -56.826      29.493    -175.898
  N      -57.817      29.481    -178.807
  C      -57.619      29.452    -180.113
  N      -56.287      29.411    -180.434
  O      -61.568      30.774    -182.422
  O      -59.614      31.993    -181.308
  H      -54.366      28.613    -183.701
  H      -61.755      30.603    -181.481
  H      -54.364      29.370    -175.857
  H      -58.401      29.455    -180.859
  H      -54.643      29.704    -181.633
  H      -55.816      27.156    -181.747
  H      -52.206      28.989    -176.692
  H      -57.916      27.985    -182.591
  H      -51.899      29.336    -178.359
  H      -56.304      29.669    -184.583
  H      -58.159      31.277    -184.275
  H      -58.699      29.734    -184.989
  P      -57.548      25.731    -184.081
  C      -60.103      26.218    -184.167
  O      -58.990      25.812    -183.381
  O      -56.587      25.269    -182.887
  O      -57.452      24.826    -185.260
  H      -56.583      24.295    -182.817
  H      -60.985      26.222    -183.561
  H      -60.232      25.536    -184.981
  H      -59.929      27.202    -184.550

 6  7  8  9  10  11  12  13  14  15  26  29  33  34 0
 6-311+G(2d,p)
 ****
 36  38  39  40  41 0
 6-311+G(2d,p)
 ****
 1  2  3  4  5  16  17  18  19  20  21  22  23  24  25 0
 3-21G
 ****
 27  28  30  31  32  35  37  42  43  44  45  46  47 0
 3-21G
 ****
 48  49 0
 3-21G
 ****


