%nproc=1
%NoSave
%Mem=1900MB
#P OB98/GEN NMR

erre ene a

0 1
  C     -112.248     -26.015     -16.864
  O     -112.911     -27.090     -17.502
  H     -111.572     -26.418     -16.106
  H     -112.980     -25.366     -16.376
  H     -111.665     -25.441     -17.590
  P     -113.772     -26.725     -18.802
  C     -113.216     -25.890     -21.226
  O     -112.746     -26.186     -19.918
  C     -112.135     -25.164     -22.020
  O     -111.688     -23.987     -21.320
  C     -110.862     -25.968     -22.221
  O     -111.020     -27.014     -23.155
  C     -109.909     -24.877     -22.687
  O     -110.024     -24.639     -24.095
  C     -110.397     -23.648     -21.882
  N     -109.439     -23.252     -20.868
  C     -108.206     -22.797     -21.355
  O     -108.005     -22.736     -22.569
  N     -107.228     -22.463     -20.455
  C     -107.447     -22.596     -19.185
  N     -106.424     -22.278     -18.348
  C     -108.731     -23.073     -18.630
  C     -109.674     -23.381     -19.521
  O     -114.543     -25.402     -18.345
  O     -114.665     -27.816     -19.288
  H     -109.995     -25.519     -24.526
  H     -113.967     -24.733     -17.940
  H     -108.869     -23.154     -17.562
  H     -110.646     -23.740     -19.201
  H     -110.563     -22.793     -22.550
  H     -108.866     -25.142     -22.494
  H     -110.499     -26.348     -21.256
  H     -112.567     -24.856     -22.982
  H     -105.544     -22.009     -18.772
  H     -114.126     -25.282     -21.178
  H     -106.453     -22.416     -17.349
  H     -113.475     -26.837     -21.709
  P     -110.151     -28.355     -23.059
  C     -110.118     -30.335     -21.412
  O     -110.373     -28.945     -21.580
  O     -108.719     -28.218     -23.455
  O     -110.980     -29.389     -23.957
  H     -111.892     -29.549     -23.659
  H     -110.299     -30.610     -20.394
  H     -109.099     -30.543     -21.662
  H     -110.765     -30.896     -22.053

 6  7  8  9  10  11  12  13  14  15  16  26  30  31  32  33  35 0
 6-311+G(2d,p)
 ****
 37  38 0
 6-311+G(2d,p)
 ****
 1  2  3  4  5  17  18  19  20  21  22  23  24  25 0
 3-21G
 ****
 27  28  29  34  36  39  40  41  42  43  44  45  46 0
 3-21G
 ****


