%nproc=1
%NoSave
%Mem=1900MB
#P OB98/GEN NMR

erre ene a

0 1
  C      -41.355    -984.865     389.383
  O      -40.028    -984.858     389.863
  H      -42.011    -985.226     390.182
  H      -41.458    -985.531     388.521
  H      -41.664    -983.851     389.112
  P      -38.843    -984.616     388.799
  C      -39.273    -986.864     387.599
  O      -38.353    -986.086     388.363
  C      -38.629    -988.168     387.136
  O      -37.465    -987.887     386.325
  C      -38.128    -989.049     388.269
  O      -39.151    -989.623     389.049
  C      -37.118    -989.951     387.563
  O      -37.712    -991.101     386.971
  C      -36.573    -989.015     386.460
  N      -35.203    -988.596     386.720
  C      -34.282    -989.622     386.912
  O      -34.573    -990.817     386.879
  N      -32.996    -989.226     387.174
  C      -32.569    -987.943     387.317
  O      -31.412    -987.660     387.599
  C      -33.596    -986.896     387.138
  C      -34.847    -987.268     386.853
  O      -37.733    -983.717     389.256
  O      -39.605    -984.083     387.498
  H      -38.476    -990.785     386.442
  H      -38.979    -983.653     386.873
  H      -32.309    -989.957     387.299
  H      -33.297    -985.866     387.251
  H      -35.621    -986.518     386.717
  H      -36.583    -989.535     385.485
  H      -36.350    -990.300     388.252
  H      -37.540    -988.415     388.948
  H      -39.350    -988.711     386.507
  H      -39.564    -986.268     386.730
  H      -40.167    -987.070     388.201
  P      -39.612    -989.031     390.458
  C      -37.450    -989.939     391.571
  O      -38.862    -989.854     391.629
  O      -41.072    -988.731     390.618
  O      -38.830    -987.619     390.485
  H      -39.399    -986.976     390.950
  H      -37.092    -990.509     392.403
  H      -37.032    -988.955     391.606
  H      -37.159    -990.418     390.660

 6  7  8  9  10  11  12  13  14  15  16  26  31  32  33  34  35 0
 6-311+G(2d,p)
 ****
 36  37 0
 6-311+G(2d,p)
 ****
 1  2  3  4  5  17  18  19  20  21  22  23  24  25 0
 3-21G
 ****
 27  28  29  30  38  39  40  41  42  43  44  45 0
 3-21G
 ****


