%nproc=1
%NoSave
%Mem=1900MB
#P OB98/GEN NMR

erre ene a

0 1
  C      106.684       2.230     -23.282
  O      105.415       1.679     -23.562
  H      107.432       1.713     -23.888
  H      106.929       2.089     -22.226
  H      106.701       3.293     -23.531
  P      104.154       2.313     -22.794
  C      104.155       0.153     -21.342
  O      104.126       1.574     -21.365
  C      103.151      -0.384     -20.317
  O      103.727      -0.286     -18.993
  C      101.827       0.381     -20.309
  O      100.745      -0.548     -20.211
  C      101.905       1.247     -19.064
  O      100.616       1.571     -18.547
  C      102.790       0.401     -18.141
  N      103.479       1.220     -17.146
  C      102.706       1.708     -16.088
  O      101.501       1.454     -16.032
  N      103.299       2.515     -15.151
  C      104.542       2.856     -15.290
  N      105.066       3.675     -14.340
  C      105.383       2.404     -16.416
  C      104.796       1.593     -17.294
  O      102.907       1.682     -23.570
  O      104.135       3.804     -22.724
  H      100.738       2.204     -17.805
  H      102.067       2.147     -23.342
  H      106.409       2.729     -16.496
  H      105.336       1.213     -18.154
  H      102.191      -0.357     -17.618
  H      102.414       2.188     -19.308
  H      101.684       0.994     -21.198
  H      102.993      -1.451     -20.512
  H      104.457       3.974     -13.588
  H      105.163      -0.178     -21.076
  H      106.012       4.028     -14.363
  H      103.901      -0.227     -22.336
  P      100.179      -1.114     -21.603
  C       98.037       0.307     -21.944
  O       99.386       0.082     -22.325
  O       99.023      -2.125     -21.152
  O      101.217      -1.776     -22.446
  H       99.348      -3.044     -21.173
  H       97.641       1.128     -22.504
  H       97.995       0.534     -20.899
  H       97.459      -0.572     -22.142

 6  7  8  9  10  11  12  13  14  15  16  26  30  31  32  33  35 0
 6-311+G(2d,p)
 ****
 37  38 0
 6-311+G(2d,p)
 ****
 1  2  3  4  5  17  18  19  20  21  22  23  24  25 0
 3-21G
 ****
 27  28  29  34  36  39  40  41  42  43  44  45  46 0
 3-21G
 ****


