%nproc=1
%NoSave
%Mem=1900MB
#P OB98/GEN NMR

erre ene a

0 1
  C       -4.206     183.349     157.866
  O       -5.007     184.328     157.221
  P       -4.468     185.842     157.218
  C       -4.247     187.679     159.037
  O       -4.804     186.421     158.677
  C       -5.337     188.627     159.521
  O       -6.003     188.061     160.664
  C       -4.834     189.989     159.976
  O       -4.604     190.864     158.882
  C       -6.006     190.466     160.823
  O       -7.025     191.018     159.971
  C       -6.497     189.161     161.470
  N       -6.663     190.956     166.202
  C       -7.292     191.412     165.059
  N       -8.101     192.483     165.206
  N       -7.139     190.867     163.882
  C       -6.333     189.781     163.894
  C       -5.651     189.235     164.959
  C       -5.788     189.878     166.248
  O       -5.205     189.558     167.281
  N       -4.944     188.122     164.581
  C       -5.224     187.973     163.303
  N       -6.039     188.973     162.832
  O       -5.517     186.597     156.273
  O       -3.067     186.015     156.745
  H       -7.207     190.357     159.276
  H       -5.099     187.388     155.879
  H       -6.829     191.401     167.086
  H       -4.861     187.163     162.685
  H       -7.591     189.099     161.459
  H       -5.727     191.248     161.536
  H       -8.361     192.860     166.103
  H       -3.942     189.891     160.606
  H       -8.600     192.807     164.387
  H       -6.076     188.738     158.717
  H       -3.756     188.119     158.163
  H       -3.497     187.522     159.819
  P       -3.452     191.967     159.075
  C       -3.238     194.070     160.585
  O       -3.943     192.877     160.298
  O       -3.631     192.909     157.795
  O       -2.075     191.406     159.178
  H       -2.785     193.347     157.577
  H       -2.889     194.558     159.671
  H       -2.382     193.841     161.226
  H       -3.905     194.755     161.114
  H       -4.682     182.394     157.792
  H       -4.086     183.609     158.897
  H       -3.246     183.307     157.395

 3  4  5  6  7  8  9  10  11  12  23  26  30  31  33  0
 6-311+G(2d,p)
 ****
 35  36  37  38 0
 6-311+G(2d,p)
 ****
 1  2  13  14  15  16  17  18  19  20  21  22  24  25  27  28  29 0
 3-21G
 ****
 32  34  39  40  41  42  43  44  45  46  47  48  49 0
 3-21G
 ****


