%nproc=1
%NoSave
%Mem=1900MB
#P OB98/GEN NMR

erre ene a

0 1
  C       30.175     368.983     566.075
  O       31.436     368.802     565.467
  P       31.612     367.747     564.274
  C       30.795     365.801     565.735
  O       31.853     366.309     564.938
  C       30.936     364.287     565.911
  O       30.669     363.614     564.663
  C       32.331     363.841     566.331
  O       32.551     364.085     567.707
  C       32.295     362.366     565.942
  O       31.638     361.589     566.962
  C       31.452     362.394     564.665
  N       32.955     359.349     560.857
  C       32.283     359.099     561.999
  N       31.953     359.962     562.987
  C       32.416     361.198     562.714
  C       33.136     361.598     561.603
  C       33.388     360.611     560.622
  N       34.020     360.870     559.426
  N       33.460     362.936     561.692
  C       32.939     363.339     562.837
  N       32.247     362.331     563.456
  O       32.588     368.140     563.214
  O       30.134     367.620     563.670
  H       31.497     360.698     566.601
  H       30.148     367.893     562.728
  H       31.960     358.069     562.141
  H       33.028     364.332     563.253
  H       30.733     361.562     564.631
  H       33.293     361.944     565.804
  H       33.085     364.352     565.717
  H       30.185     363.952     566.642
  H       29.840     366.028     565.247
  H       34.026     360.139     558.737
  H       34.077     361.840     559.115
  H       30.806     366.291     566.718
  P       33.997     364.567     568.206
  C       34.813     362.146     568.479
  O       34.580     363.389     569.119
  O       34.057     365.930     568.811
  O       34.903     364.477     566.886
  H       35.595     365.162     566.920
  H       33.865     361.616     568.357
  H       35.474     361.549     569.102
  H       35.283     362.294     567.505
  H       30.253     369.722     566.845
  H       29.848     368.057     566.501
  H       29.468     369.307     565.340

 3  4  5  6  7  8  9  10  11  12  22  25  29  30  31  32 0
 6-311+G(2d,p)
 ****
 33  36  37 0
 6-311+G(2d,p)
 ****
 1  2  13  14  15  16  17  18  19  20  21  23  24  26 0
 3-21G
 ****
 27  28  34  35  38  39  40  41  42  43  44  45  46  47  48 0
 3-21G
 ****


