%nproc=1
%NoSave
%Mem=1900MB
#P OB98/GEN NMR

erre ene a

0 1
  C      -47.921     531.439     457.145
  O      -47.223     531.329     458.368
  P      -45.887     530.427     458.392
  C      -46.063     528.198     459.751
  O      -46.349     528.904     458.548
  C      -47.100     528.553     460.803
  O      -48.447     528.317     460.305
  C      -46.992     527.710     462.076
  O      -45.947     528.166     462.912
  C      -48.381     527.875     462.687
  O      -48.464     529.101     463.442
  C      -49.272     527.948     461.429
  N      -49.998     526.701     461.187
  C      -51.117     526.477     461.996
  O      -51.479     527.259     462.872
  N      -51.782     525.304     461.762
  C      -51.434     524.346     460.881
  O      -52.036     523.267     460.752
  C      -50.202     524.613     460.086
  C      -49.568     525.759     460.267
  O      -45.216     530.776     459.803
  O      -44.947     530.686     457.250
  H      -47.958     528.938     464.280
  H      -44.240     530.763     459.723
  H      -52.608     525.144     462.318
  H      -49.910     523.859     459.360
  H      -48.669     525.984     459.696
  H      -50.019     528.766     461.541
  H      -48.629     527.061     463.378
  H      -46.851     526.651     461.821
  H      -47.004     529.633     461.049
  H      -45.050     528.484     460.099
  H      -46.060     527.128     459.540
  P      -45.300     527.107     463.955
  C      -46.277     527.383     466.375
  O      -46.450     526.883     465.061
  O      -44.199     528.028     464.660
  O      -44.774     525.877     463.278
  H      -44.455     528.956     464.721
  H      -45.739     528.340     466.366
  H      -45.710     526.668     466.966
  H      -47.260     527.531     466.826
  H      -48.780     532.063     457.279
  H      -48.233     530.467     456.824
  H      -47.279     531.870     456.405

 3  4  5  6  7  8  9  10  11  12  13  23  28  29  30  31  32 0
 6-311+G(2d,p)
 ****
 33  34 0
 6-311+G(2d,p)
 ****
 1  2  14  15  16  17  18  19  20  21  22  24  25  26 0
 3-21G
 ****
 27  35  36  37  38  39  40  41  42  43  44  45 0
 3-21G
 ****


