%nproc=1
%NoSave
%Mem=1900MB
#P OB98/GEN NMR

erre ene a

0 1
  C      939.165     915.137    -898.810
  O      939.609     915.306    -897.480
  H      938.192     915.627    -898.910
  H      939.052     914.072    -899.030
  H      939.859     915.589    -899.530
  P      941.157     915.006    -897.140
  C      941.404     917.546    -896.680
  O      941.946     916.400    -897.340
  C      942.529     918.450    -896.140
  O      943.385     917.667    -895.240
  C      943.421     918.941    -897.280
  O      944.034     920.201    -897.010
  C      944.528     917.866    -897.340
  O      945.723     918.335    -897.960
  C      944.692     917.526    -895.870
  N      948.275     914.067    -896.890
  C      948.077     915.317    -897.480
  N      948.910     915.668    -898.460
  N      947.107     916.141    -897.110
  C      946.315     915.597    -896.140
  C      946.383     914.395    -895.500
  C      947.465     913.511    -895.880
  O      947.701     912.390    -895.430
  N      945.364     914.201    -894.620
  C      944.645     915.306    -894.700
  N      945.187     916.206    -895.610
  O      941.658     914.159    -898.390
  O      941.401     914.307    -895.840
  H      946.304     917.558    -898.070
  H      942.414     913.596    -898.120
  H      949.043     913.485    -897.180
  H      943.740     915.528    -894.130
  H      945.355     918.234    -895.370
  H      944.157     917.033    -897.940
  H      949.552     915.013    -898.880
  H      942.875     919.003    -898.240
  H      948.616     916.420    -899.090
  H      942.097     919.275    -895.550
  H      940.787     917.184    -895.860
  H      940.765     918.107    -897.370
  P      943.989     921.310    -898.150
  C      942.253     922.799    -896.850
  O      942.581     922.092    -898.020
  O      943.833     920.448    -899.520
  O      945.184     922.206    -898.190
  H      944.674     920.431    -900.000
  H      941.286     923.244    -896.961
  H      942.981     923.565    -896.680
  H      942.243     922.126    -896.018

 6  7  8  9  10  11  12  13  14  15  26  29  33  34 0
 6-311+G(2d,p)
 ****
 36  38  39  40  41 0
 6-311+G(2d,p)
 ****
 1  2  3  4  5  16  17  18  19  20  21  22  23  24  25 0
 3-21G
 ****
 27  28  30  31  32  35  37  42  43  44  45  46  47 0
 3-21G
 ****
 48  49 0
 3-21G
 ****


