%nproc=1
%NoSave
%Mem=1900MB
#P OB98/GEN NMR

erre ene a

0 1
  C       -0.343     429.211    -190.278
  O       -0.001     428.406    -189.169
  P        0.001     428.996    -187.678
  C       -2.390     428.218    -187.143
  O       -1.533     429.332    -187.338
  C       -3.007     428.225    -185.747
  O       -1.987     427.894    -184.762
  C       -3.633     429.560    -185.327
  O       -4.753     429.241    -184.498
  C       -2.524     430.197    -184.505
  O       -3.003     431.231    -183.652
  C       -1.955     428.964    -183.793
  N       -0.608     429.205    -183.283
  C       -0.503     430.018    -182.153
  O       -1.507     430.562    -181.685
  N        0.739     430.254    -181.617
  C        1.794     429.792    -182.217
  N        2.996     430.048    -181.639
  C        1.733     429.034    -183.483
  C        0.512     428.767    -183.949
  O        0.957     430.114    -187.439
  O        0.281     427.709    -186.766
  H       -3.488     431.883    -184.198
  H        1.242     427.468    -186.797
  H        2.639     428.719    -183.979
  H        0.367     428.216    -184.864
  H       -2.597     428.666    -182.958
  H       -1.778     430.637    -185.172
  H       -3.940     430.188    -186.169
  H       -3.768     427.435    -185.702
  H        2.989     430.557    -180.767
  H       -1.801     427.306    -187.262
  H        3.866     429.669    -181.980
  H       -3.178     428.212    -187.914
  P       -6.016     430.231    -184.384
  C       -7.411     429.003    -186.133
  O       -6.754     430.210    -185.795
  O       -5.698     431.595    -183.854
  O       -7.040     429.452    -183.422
  H       -7.712     430.078    -183.093
  H       -8.102     429.194    -186.964
  H       -7.978     428.612    -185.287
  H       -6.675     428.260    -186.454
  H       -0.282     428.629    -191.174
  H        0.335     430.036    -190.342
  H       -1.341     429.578    -190.158

 3  4  5  6  7  8  9  10  11  12  13  23  27  28  29  30  32 0
 6-311+G(2d,p)
 ****
 34  35 0
 6-311+G(2d,p)
 ****
 1  2  14  15  16  17  18  19  20  21  22  24  25  26 0
 3-21G
 ****
 31  33  36  37  38  39  40  41  42  43  44  45  46 0
 3-21G
 ****


