%nproc=1
%NoSave
%Mem=1900MB
#P OB98/GEN NMR

erre ene a

0 1
  C       80.986    -149.499     388.921
  O       81.371    -148.675     390.006
  P       82.576    -149.121     390.959
  C       83.182    -146.781     391.831
  O       83.607    -147.897     391.055
  C       83.513    -145.475     391.109
  O       82.759    -145.377     389.879
  C       83.164    -144.223     391.903
  O       84.121    -143.985     392.917
  C       83.133    -143.173     390.799
  O       84.464    -142.722     390.488
  C       82.548    -143.973     389.622
  N       79.168    -140.728     387.605
  C       80.502    -140.637     387.790
  N       81.332    -141.532     388.372
  C       80.642    -142.599     388.805
  C       79.273    -142.815     388.717
  C       78.523    -141.827     388.059
  N       77.171    -141.939     387.808
  N       78.938    -144.021     389.308
  C       80.076    -144.512     389.749
  N       81.137    -143.720     389.414
  O       83.191    -150.442     390.637
  O       81.915    -149.145     392.419
  H       84.398    -142.150     389.703
  H       81.975    -150.049     392.786
  H       80.971    -139.732     387.416
  H       80.185    -145.437     390.300
  H       83.063    -143.743     388.679
  H       82.546    -142.290     391.072
  H       82.162    -144.319     392.334
  H       84.579    -145.487     390.850
  H       83.707    -146.812     392.793
  H       76.763    -141.241     387.202
  H       76.744    -142.860     387.862
  H       82.106    -146.852     392.013
  P       83.709    -144.153     394.457
  C       86.096    -144.258     395.387
  O       84.894    -144.965     395.169
  O       82.335    -144.677     394.704
  O       83.885    -142.676     395.051
  H       83.234    -142.536     395.763
  H       86.664    -144.198     394.452
  H       86.692    -144.794     396.127
  H       85.897    -143.247     395.759
  H       80.170    -149.044     388.399
  H       80.683    -150.457     389.290
  H       81.813    -149.619     388.253

 3  4  5  6  7  8  9  10  11  12  22  25  29  30  31  32 0
 6-311+G(2d,p)
 ****
 33  36  37 0
 6-311+G(2d,p)
 ****
 1  2  13  14  15  16  17  18  19  20  21  23  24  26 0
 3-21G
 ****
 27  28  34  35  38  39  40  41  42  43  44  45  46  47  48 0
 3-21G
 ****


