%nproc=1
%NoSave
%Mem=1900MB
#P OB98/GEN NMR

erre ene a

0 1
  C     -894.340     966.707    -484.769
  O     -894.360     966.750    -483.348
  P     -895.660     967.216    -482.564
  C     -895.170     965.395    -480.823
  O     -895.440     966.771    -481.036
  C     -894.840     965.141    -479.340
  O     -896.020     965.319    -478.500
  C     -894.370     963.731    -479.039
  O     -893.120     963.317    -479.586
  C     -894.510     963.686    -477.514
  O     -893.390     964.292    -476.888
  C     -895.800     964.526    -477.296
  N     -896.950     963.677    -476.983
  C     -897.500     963.853    -475.719
  O     -897.060     964.648    -474.891
  N     -898.550     963.047    -475.407
  C     -899.080     962.055    -476.209
  O     -900.000     961.346    -475.863
  C     -898.470     961.936    -477.545
  C     -897.440     962.718    -477.877
  O     -896.980     966.781    -483.150
  O     -895.490     968.808    -482.466
  H     -893.480     964.159    -475.915
  H     -894.690     969.101    -482.003
  H     -898.950     963.140    -474.481
  H     -898.870     961.184    -478.211
  H     -896.970     962.644    -478.842
  H     -895.650     965.246    -476.492
  H     -894.570     962.655    -477.148
  H     -895.110     963.018    -479.453
  H     -894.110     965.892    -479.019
  H     -894.300     965.100    -481.425
  H     -896.030     964.792    -481.146
  P     -892.960     962.070    -480.569
  C     -890.880     963.116    -481.718
  O     -891.420     962.002    -481.039
  O     -894.020     961.911    -481.616
  O     -893.050     960.840    -479.546
  H     -893.430     960.066    -479.994
  H     -889.860     962.865    -482.008
  H     -890.860     963.996    -481.036
  H     -891.440     963.357    -482.619
  H     -893.381     966.369    -485.102
  H     -894.529     967.686    -485.158
  H     -895.096     966.033    -485.116

 3  4  5  6  7  8  9  10  11  12  13  23  28  29  30  31  32 0
 6-311+G(2d,p)
 ****
 33  34 0
 6-311+G(2d,p)
 ****
 1  2  14  15  16  17  18  19  20  21  22  24  25  26  27 0
 3-21G
 ****
 35  36  37  38  39  40  41  42  43  44  45 0
 3-21G
 ****


