%nproc=1
%NoSave
%Mem=1900MB
#P OB98/GEN NMR

erre ene a

0 1
  C      300.265     133.822     522.405
  O      300.692     135.120     522.055
  H      300.399     133.165     521.542
  H      299.204     133.843     522.671
  H      300.845     133.425     523.241
  P      300.942     136.190     523.221
  C      299.566     138.044     524.377
  O      299.626     137.107     523.312
  C      298.312     138.914     524.275
  O      298.356     139.694     523.056
  C      297.055     138.037     524.191
  O      295.907     138.688     524.730
  C      296.867     137.861     522.693
  O      295.533     137.506     522.334
  C      297.313     139.227     522.176
  N      296.154     138.724     517.239
  C      295.347     138.550     518.348
  N      294.066     138.176     518.115
  N      295.761     138.720     519.581
  C      297.079     139.023     519.666
  C      297.984     139.190     518.644
  C      297.501     139.041     517.288
  O      298.172     139.165     516.268
  N      299.240     139.472     519.126
  C      299.100     139.466     520.438
  N      297.798     139.211     520.814
  O      302.021     137.196     522.589
  O      301.417     135.629     524.527
  H      295.560     137.144     521.430
  H      302.528     137.635     523.296
  H      295.777     138.597     516.319
  H      299.889     139.647     521.148
  H      296.484     139.946     522.222
  H      297.521     137.045     522.359
  H      293.757     137.868     517.209
  H      297.188     137.078     524.692
  H      293.558     137.768     518.906
  H      298.272     139.625     525.105
  H      300.461     138.669     524.307
  H      299.599     137.525     525.341
  P      295.132     137.952     525.928
  C      292.908     136.573     526.153
  O      293.817     137.271     525.316
  O      294.573     139.158     526.818
  O      295.998     137.023     526.719
  H      295.098     139.247     527.630
  H      292.100     136.193     525.563
  H      292.524     137.240     526.897
  H      293.415     135.760     526.630

 6  7  8  9  10  11  12  13  14  15  26  29  33  34 0
 6-311+G(2d,p)
 ****
 36  38  39  40  41 0
 6-311+G(2d,p)
 ****
 1  2  3  4  5  16  17  18  19  20  21  22  23  24  25 0
 3-21G
 ****
 27  28  30  31  32  35  37  42  43  44  45  46  47 0
 3-21G
 ****
 48  49 0
 3-21G
 ****


