%nproc=1
%NoSave
%Mem=1900MB
#P OB98/GEN NMR

erre ene a

0 1
  C       90.883      27.910     270.348
  O       91.801      26.922     269.925
  H       90.132      28.070     269.570
  H       90.380      27.559     271.252
  H       91.396      28.849     270.571
  P       92.861      27.341     268.797
  C       91.667      25.999     266.924
  O       92.844      26.165     267.701
  C       91.883      24.935     265.850
  O       92.906      25.408     264.928
  C       92.337      23.570     266.393
  O       91.693      22.543     265.633
  C       93.823      23.551     266.090
  O       94.344      22.233     265.969
  C       93.873      24.352     264.792
  N       98.073      23.788     261.984
  C       96.817      23.320     261.832
  N       95.738      23.565     262.601
  C       96.038      24.437     263.578
  C       97.269      25.004     263.856
  C       98.330      24.631     263.012
  N       99.629      25.047     263.199
  N       97.189      25.807     264.977
  C       95.938      25.703     265.382
  N       95.205      24.885     264.569
  O       94.261      27.133     269.548
  O       92.717      28.723     268.259
  H       94.218      21.765     266.817
  H       94.500      27.947     270.028
  H       96.659      22.655     260.986
  H       95.523      26.170     266.264
  H       93.607      23.750     263.914
  H       94.368      24.065     266.890
  H       92.126      23.427     267.460
  H       90.957      24.830     265.272
  H       91.423      26.949     266.437
  H      100.339      24.643     262.610
  H       99.854      25.586     264.023
  H       90.838      25.715     267.579
  P       90.162      22.217     265.979
  C       90.842      20.706     267.988
  O       90.106      20.829     266.777
  O       89.534      21.850     264.554
  O       89.434      23.349     266.628
  H       88.601      22.127     264.515
  H       90.700      19.726     268.394
  H       90.498      21.436     268.690
  H       91.882      20.863     267.791

 6  7  8  9  10  11  12  13  14  15  25  28  32  33  34  35 0
 6-311+G(2d,p)
 ****
 36  39  40 0
 6-311+G(2d,p)
 ****
 1  2  3  4  5  16  17  18  19  20  21  22  23  24 0
 3-21G
 ****
 26  27  29  30  31  37  38  41  42  43  44  45  46  47 0
 3-21G
 ****
 48 0
 3-21G
 ****


