%nproc=1
%NoSave
%Mem=1900MB
#P OB98/GEN NMR

erre ene a

0 1
  C      746.859     265.835      90.803
  O      746.149     267.054      90.857
  H      747.501     265.842      89.915
  H      746.172     264.990      90.729
  H      747.496     265.724      91.685
  P      745.102     267.276      92.057
  C      743.222     266.525      90.454
  O      743.674     267.520      91.362
  C      741.890     266.952      89.827
  O      741.410     265.936      88.922
  C      740.771     267.196      90.831
  O      740.887     268.485      91.415
  C      739.563     267.069      89.925
  O      739.398     268.273      89.150
  C      739.968     265.900      89.016
  N      736.073     262.829      90.132
  C      736.067     264.168      89.789
  N      734.869     264.792      89.772
  N      737.162     264.842      89.506
  C      738.289     264.115      89.626
  C      738.417     262.788      89.971
  C      737.203     262.038      90.216
  O      737.151     260.836      90.491
  N      739.731     262.419      90.081
  C      740.403     263.508      89.748
  N      739.575     264.573      89.476
  O      745.474     268.318      93.063
  O      744.946     265.823      92.715
  H      739.428     269.018      89.774
  H      745.580     265.706      93.449
  H      735.195     262.362      90.341
  H      741.480     263.578      89.699
  H      739.565     266.009      88.000
  H      738.627     266.920      90.487
  H      734.025     264.368      90.133
  H      740.739     266.409      91.596
  H      734.864     265.785      89.583
  H      742.079     267.856      89.222
  H      743.096     265.600      91.016
  H      743.963     266.364      89.663
  P      740.766     268.709      93.001
  C      738.887     270.411      92.453
  O      740.072     270.164      93.170
  O      742.017     268.522      93.768
  O      739.570     267.740      93.440
  H      739.876     266.809      93.618
  H      738.545     271.404      92.660
  H      738.138     269.707      92.749
  H      739.077     270.311      91.405

 6  7  8  9  10  11  12  13  14  15  26  29  33  34 0
 6-311+G(2d,p)
 ****
 36  38  39  40  41 0
 6-311+G(2d,p)
 ****
 1  2  3  4  5  16  17  18  19  20  21  22  23  24  25 0
 3-21G
 ****
 27  28  30  31  32  35  37  42  43  44  45  46  47 0
 3-21G
 ****
 48  49 0
 3-21G
 ****


