%nproc=1
%NoSave
%Mem=1900MB
#P OB98/GEN NMR

erre ene a

0 1
  C       82.350     385.364    1141.477
  O       82.090     386.652    1140.929
  P       80.789     386.913    1140.025
  C       79.490     387.008    1142.241
  O       79.547     386.453    1140.928
  C       78.042     387.013    1142.736
  O       77.285     387.959    1141.931
  C       77.284     385.690    1142.606
  O       77.491     384.782    1143.671
  C       75.842     386.174    1142.636
  O       75.464     386.461    1144.002
  C       75.912     387.485    1141.825
  N       72.628     388.729    1138.116
  C       72.719     389.107    1139.412
  N       73.605     388.722    1140.348
  C       74.508     387.865    1139.804
  C       74.543     387.387    1138.510
  C       73.537     387.860    1137.642
  N       73.470     387.478    1136.312
  N       75.591     386.507    1138.339
  C       76.193     386.473    1139.509
  N       75.574     387.287    1140.427
  O       80.860     386.327    1138.656
  O       80.648     388.508    1139.999
  H       74.545     386.786    1143.980
  H       80.059     388.783    1139.276
  H       71.976     389.831    1139.746
  H       77.062     385.883    1139.752
  H       75.267     388.266    1142.235
  H       75.127     385.436    1142.253
  H       77.474     385.213    1141.636
  H       78.024     387.361    1143.767
  H       79.857     388.044    1142.194
  H       72.796     387.951    1135.735
  H       74.232     386.952    1135.923
  H       80.123     386.442    1142.917
  P       76.927     383.285    1143.495
  C       78.707     383.131    1141.575
  O       77.419     382.801    1142.042
  O       75.471     383.149    1143.750
  O       77.836     382.431    1144.497
  H       78.788     382.359    1144.246
  H       78.894     382.574    1140.658
  H       79.468     382.850    1142.310
  H       78.774     384.202    1141.375
  H       83.257     385.394    1142.044
  H       82.449     384.652    1140.684
  H       81.540     385.078    1142.115

 3  4  5  6  7  8  9  10  11  12  22  25  29  30  31  32 0
 6-311+G(2d,p)
 ****
 33  36  37 0
 6-311+G(2d,p)
 ****
 1  2  13  14  15  16  17  18  19  20  21  23  24  26 0
 3-21G
 ****
 27  28  34  35  38  39  40  41  42  43  44  45  46  47  48 0
 3-21G
 ****


