%nproc=1
%NoSave
%Mem=1900MB
#P OB98/GEN NMR

erre ene a

0 1
  C      167.208      30.325      28.391
  O      167.741      29.534      29.428
  P      166.899      28.440      30.228
  C      167.072      29.873      32.409
  O      166.244      29.139      31.513
  C      166.287      30.301      33.657
  O      165.147      31.095      33.236
  C      165.728      29.087      34.417
  O      165.838      29.186      35.832
  C      164.329      28.935      33.835
  O      163.448      28.187      34.660
  C      163.937      30.389      33.587
  N      159.028      30.194      32.290
  C      159.598      30.141      33.546
  N      158.767      29.814      34.560
  N      160.869      30.353      33.772
  C      161.593      30.557      32.647
  C      161.140      30.632      31.350
  C      159.729      30.430      31.118
  O      159.199      30.355      30.009
  N      162.168      30.783      30.458
  C      163.251      30.766      31.211
  N      162.953      30.595      32.544
  O      167.541      27.102      30.406
  O      165.619      28.243      29.263
  H      162.605      28.093      34.180
  H      165.349      27.305      29.332
  H      158.054      29.941      32.169
  H      164.269      30.838      30.845
  H      163.527      30.853      34.485
  H      164.422      28.388      32.893
  H      157.822      29.503      34.396
  H      166.308      28.188      34.183
  H      159.200      29.526      35.435
  H      166.923      30.935      34.285
  H      167.413      30.757      31.858
  H      167.951      29.291      32.686
  P      166.262      28.064      36.885
  C      163.887      27.982      37.856
  O      164.954      27.235      37.301
  O      166.616      28.862      38.224
  O      167.420      27.220      36.465
  H      167.393      28.454      38.652
  H      163.192      27.291      38.342
  H      163.361      28.516      37.061
  H      164.257      28.696      38.599
  H      167.967      30.979      28.015
  H      166.392      30.905      28.768
  H      166.860      29.692      27.602

 3  4  5  6  7  8  9  10  11  12  23  26  30  31 0
 6-311+G(2d,p)
 ****
 33  35  36  37  38 0
 6-311+G(2d,p)
 ****
 1  2  13  14  15  16  17  18  19  20  21  22  24  25 0
 3-21G
 ****
 27  28  29  32  34  39  40  41  42  43  44  45  46  47  48  49 0
 3-21G
 ****


