%nproc=1
%NoSave
%Mem=1900MB
#P OB98/GEN NMR

erre ene a

0 1
  C     1371.484     844.340     610.567
  O     1372.775     843.785     610.734
  H     1370.821     843.566     610.170
  H     1371.523     845.169     609.865
  H     1371.089     844.684     611.528
  P     1373.860     844.656     611.531
  C     1373.802     842.896     613.446
  O     1373.714     844.265     613.073
  C     1373.878     842.774     614.970
  O     1375.087     843.456     615.420
  C     1372.699     843.404     615.714
  O     1372.431     842.586     616.871
  C     1373.228     844.742     616.177
  O     1372.568     845.284     617.279
  C     1374.688     844.376     616.456
  N     1375.566     845.547     616.495
  C     1376.175     845.859     617.710
  O     1376.109     845.170     618.714
  N     1376.912     847.012     617.733
  C     1377.057     847.906     616.686
  O     1377.714     848.937     616.774
  C     1376.380     847.511     615.429
  C     1375.678     846.379     615.405
  O     1373.249     846.141     611.455
  O     1375.255     844.575     611.004
  H     1373.579     846.591     610.651
  H     1372.927     846.187     617.451
  H     1377.363     847.256     618.596
  H     1376.468     848.193     614.585
  H     1375.161     846.081     614.488
  H     1374.772     843.840     617.412
  H     1373.185     845.459     615.337
  H     1371.791     843.509     615.114
  H     1374.012     841.711     615.229
  H     1374.698     842.465     613.009
  H     1372.913     842.380     613.069
  P     1370.940     841.951     616.959
  C     1372.045     839.916     615.714
  O     1370.922     840.780     615.855
  O     1370.050     843.104     616.332
  O     1370.571     841.542     618.348
  H     1370.501     843.595     615.630
  H     1371.853     839.206     614.937
  H     1372.216     839.399     616.635
  H     1372.910     840.494     615.464

 6  7  8  9  10  11  12  13  14  15  16  27  31  32  33  34  35 0
 6-311+G(2d,p)
 ****
 36  37 0
 6-311+G(2d,p)
 ****
 1  2  3  4  5  17  18  19  20  21  22  23  24  25 0
 3-21G
 ****
 26  28  29  30  38  39  40  41  42  43  44  45 0
 3-21G
 ****


