%nproc=1
%NoSave
%Mem=1900MB
#P OB98/GEN NMR

erre ene a

0 1
  C      246.387      40.440    -230.123
  O      245.526      39.486    -229.541
  H      246.396      40.286    -231.205
  H      247.403      40.304    -229.742
  H      246.049      41.458    -229.917
  P      245.077      39.682    -228.016
  C      242.606      39.772    -228.763
  O      243.647      40.409    -228.036
  C      241.442      40.739    -229.007
  O      240.944      41.210    -227.727
  C      241.892      41.977    -229.791
  O      240.832      42.542    -230.557
  C      242.277      42.949    -228.689
  O      242.243      44.314    -229.107
  C      241.252      42.609    -227.611
  N      241.907      46.156    -224.007
  C      241.577      46.316    -225.338
  N      241.396      47.588    -225.766
  N      241.461      45.322    -226.179
  C      241.740      44.113    -225.633
  C      242.099      43.831    -224.336
  C      242.193      44.937    -223.402
  O      242.505      44.855    -222.220
  N      242.314      42.487    -224.154
  C      242.089      41.957    -225.340
  N      241.714      42.901    -226.266
  O      246.047      40.841    -227.482
  O      245.158      38.457    -227.156
  H      242.726      44.838    -228.439
  H      246.112      40.808    -226.511
  H      241.954      46.953    -223.396
  H      242.167      40.902    -225.577
  H      240.323      43.170    -227.768
  H      243.306      42.733    -228.382
  H      241.669      48.379    -225.202
  H      242.737      41.775    -230.446
  H      241.466      47.743    -226.775
  H      240.613      40.214    -229.496
  H      242.278      38.916    -228.169
  H      242.988      39.383    -229.708
  P      240.500      41.909    -231.991
  C      237.909      41.829    -231.454
  O      239.069      41.200    -231.954
  O      241.527      40.691    -232.114
  O      240.626      42.865    -233.135
  H      242.154      40.843    -232.846
  H      237.078      41.160    -231.533
  H      237.710      42.714    -232.022
  H      238.060      42.091    -230.428

 6  7  8  9  10  11  12  13  14  15  26  29  33  34 0
 6-311+G(2d,p)
 ****
 36  38  39  40  41 0
 6-311+G(2d,p)
 ****
 1  2  3  4  5  16  17  18  19  20  21  22  23  24  25 0
 3-21G
 ****
 27  28  30  31  32  35  37  42  43  44  45  46  47 0
 3-21G
 ****
 48  49 0
 3-21G
 ****


