%nproc=1
%NoSave
%Mem=1900MB
#P OB98/GEN NMR

erre ene a

0 1
  C      216.110     364.650     -44.301
  O      216.439     363.593     -43.420
  H      215.024     364.685     -44.412
  H      216.560     364.492     -45.285
  H      216.451     365.601     -43.885
  P      217.980     363.154     -43.307
  C      217.918     360.989     -44.707
  O      218.297     362.361     -44.671
  C      218.991     360.136     -45.384
  O      218.690     358.729     -45.244
  C      219.110     360.358     -46.883
  O      219.584     361.633     -47.255
  C      219.877     359.122     -47.325
  O      221.284     359.255     -47.134
  C      219.310     358.050     -46.359
  N      218.379     357.144     -47.020
  C      218.940     356.018     -47.614
  O      220.149     355.784     -47.616
  N      218.066     355.174     -48.238
  C      216.720     355.365     -48.366
  O      215.991     354.579     -48.959
  C      216.189     356.593     -47.754
  C      217.028     357.413     -47.117
  O      218.349     362.397     -42.067
  O      218.783     364.525     -43.491
  H      221.700     358.469     -47.535
  H      219.723     364.429     -43.200
  H      218.452     354.343     -48.661
  H      215.129     356.784     -47.847
  H      216.659     358.326     -46.653
  H      220.126     357.449     -45.939
  H      219.713     358.890     -48.379
  H      218.108     360.275     -47.323
  H      219.943     360.323     -44.876
  H      216.986     360.915     -45.279
  H      217.738     360.633     -43.688
  P      219.054     362.442     -48.523
  C      221.363     362.282     -49.740
  O      219.960     362.056     -49.788
  O      218.723     363.883     -48.307
  O      217.673     361.668     -48.850
  H      217.046     362.335     -49.192
  H      221.806     361.969     -50.662
  H      221.787     361.723     -48.932
  H      221.551     363.324     -49.590

 6  7  8  9  10  11  12  13  14  15  16  26  31  32  33  34  35 0
 6-311+G(2d,p)
 ****
 36  37 0
 6-311+G(2d,p)
 ****
 1  2  3  4  5  17  18  19  20  21  22  23  24  25 0
 3-21G
 ****
 27  28  29  30  38  39  40  41  42  43  44  45 0
 3-21G
 ****


