%nproc=1
%NoSave
%Mem=1900MB
#P OB98/GEN NMR

erre ene a

0 1
  C      126.743     -62.277     -44.459
  O      125.881     -61.542     -45.307
  P      124.400     -61.163     -44.837
  C      123.383     -63.319     -45.776
  O      123.599     -62.537     -44.608
  C      121.975     -63.913     -45.796
  O      121.761     -64.664     -44.570
  C      120.845     -62.879     -45.901
  O      119.799     -63.487     -46.665
  C      120.396     -62.725     -44.457
  O      119.082     -62.194     -44.339
  C      120.548     -64.162     -43.971
  N      118.142     -63.234     -39.556
  C      117.803     -62.974     -40.836
  N      118.510     -63.228     -41.956
  C      119.679     -63.817     -41.657
  C      120.175     -64.118     -40.398
  C      119.341     -63.816     -39.307
  N      119.656     -64.107     -37.998
  N      121.441     -64.666     -40.498
  C      121.699     -64.695     -41.789
  N      120.637     -64.253     -42.531
  O      123.693     -60.167     -45.696
  O      124.596     -60.606     -43.349
  H      119.081     -61.289     -44.705
  H      124.493     -59.634     -43.344
  H      116.833     -62.503     -40.982
  H      122.626     -65.020     -42.239
  H      119.718     -64.799     -44.299
  H      121.081     -62.051     -43.928
  H      121.150     -61.930     -46.350
  H      121.918     -64.628     -46.627
  H      124.117     -64.132     -45.779
  H      118.931     -63.972     -37.311
  H      120.405     -64.770     -37.808
  H      123.546     -62.705     -46.669
  P      118.947     -62.606     -47.699
  C      117.408     -61.750     -45.841
  O      118.326     -61.393     -46.859
  O      117.977     -63.365     -48.541
  O      120.070     -61.889     -48.593
  H      119.668     -61.556     -49.416
  H      116.428     -61.936     -46.285
  H      117.327     -60.924     -45.130
  H      117.740     -62.646     -45.308
  H      127.682     -62.429     -44.950
  H      126.300     -63.225     -44.235
  H      126.899     -61.733     -43.551

 3  4  5  6  7  8  9  10  11  12  22  25  29  30  31  32 0
 6-311+G(2d,p)
 ****
 33  36  37 0
 6-311+G(2d,p)
 ****
 1  2  13  14  15  16  17  18  19  20  21  23  24  26 0
 3-21G
 ****
 27  28  34  35  38  39  40  41  42  43  44  45  46  47  48 0
 3-21G
 ****


