%nproc=1
%NoSave
%Mem=1900MB
#P OB98/GEN NMR

erre ene a

0 1
  C      -77.431      50.114     -16.154
  O      -77.282      49.570     -14.862
  H      -76.439      50.224     -16.602
  H      -77.897      51.101     -16.086
  H      -78.035      49.466     -16.795
  P      -78.554      48.900     -14.159
  C      -78.894      50.940     -12.615
  O      -79.478      50.083     -13.588
  C      -79.880      51.999     -12.121
  O      -80.406      52.750     -13.237
  C      -81.090      51.382     -11.418
  O      -80.903      51.072     -10.049
  C      -82.142      52.474     -11.593
  O      -82.034      53.460     -10.554
  C      -81.776      53.082     -12.950
  N      -86.500      52.854     -14.883
  C      -86.079      53.379     -13.676
  N      -87.047      53.849     -12.859
  N      -84.826      53.418     -13.306
  C      -83.981      52.826     -14.182
  C      -84.283      52.260     -15.401
  C      -85.668      52.271     -15.827
  O      -86.095      51.813     -16.882
  N      -83.161      51.759     -16.017
  C      -82.197      51.955     -15.139
  N      -82.641      52.622     -14.021
  O      -77.948      48.259     -12.818
  O      -79.267      47.865     -14.975
  H      -81.285      54.047     -10.764
  H      -78.496      47.506     -12.533
  H      -87.474      52.876     -15.128
  H      -81.163      51.659     -15.273
  H      -81.842      54.177     -12.929
  H      -83.157      52.069     -11.541
  H      -88.030      53.734     -13.050
  H      -81.429      50.490     -11.955
  H      -86.812      53.992     -11.874
  H      -79.353      52.708     -11.472
  H      -78.038      51.422     -13.094
  H      -78.508      50.355     -11.776
  P      -81.449      49.688      -9.459
  C      -83.474      50.683      -8.163
  O      -83.023      49.867      -9.223
  O      -80.840      49.669      -7.980
  O      -81.060      48.476     -10.235
  H      -80.017      49.145      -7.961
  H      -84.544      50.691      -8.150
  H      -83.111      51.680      -8.301
  H      -83.109      50.296      -7.235

 6  7  8  9  10  11  12  13  14  15  26  29  33  34 0
 6-311+G(2d,p)
 ****
 36  38  39  40  41 0
 6-311+G(2d,p)
 ****
 1  2  3  4  5  16  17  18  19  20  21  22  23  24  25 0
 3-21G
 ****
 27  28  30  31  32  35  37  42  43  44  45  46  47 0
 3-21G
 ****
 48  49 0
 3-21G
 ****


