%nproc=1
%NoSave
%Mem=1900MB
#P OB98/GEN NMR

erre ene a

0 1
  C      124.461      11.366     -25.215
  O      125.134      10.690     -26.257
  H      123.436      10.988     -25.160
  H      124.429      12.440     -25.410
  H      124.953      11.173     -24.256
  P      126.644      11.105     -26.595
  C      128.411      10.443     -28.358
  O      127.107      10.201     -27.839
  C      129.108       9.114     -28.675
  O      129.389       8.453     -27.417
  C      128.235       8.181     -29.527
  O      128.895       7.712     -30.703
  C      127.756       7.138     -28.524
  O      127.434       5.883     -29.087
  C      128.887       7.104     -27.490
  N      128.470       6.636     -26.171
  C      128.756       5.314     -25.843
  O      129.351       4.515     -26.567
  N      128.331       4.906     -24.603
  C      127.664       5.668     -23.692
  O      127.315       5.250     -22.592
  C      127.373       7.050     -24.101
  C      127.781       7.464     -25.304
  O      127.588      11.108     -25.439
  O      126.509      12.564     -27.244
  H      126.754       6.031     -29.776
  H      126.760      13.239     -26.587
  H      128.541       3.953     -24.350
  H      126.835       7.680     -23.407
  H      127.585       8.478     -25.641
  H      129.698       6.458     -27.831
  H      126.845       7.518     -28.044
  H      127.364       8.716     -29.926
  H      130.069       9.326     -29.159
  H      128.977      10.999     -27.602
  H      128.339      11.050     -29.267
  P      128.453       8.063     -32.195
  C      129.649       8.095     -34.528
  O      129.646       7.651     -33.180
  O      127.849       9.413     -32.389
  O      127.308       6.967     -32.509
  H      126.666       7.399     -33.110
  H      130.520       7.721     -35.025
  H      129.657       9.165     -34.551
  H      128.772       7.734     -35.024

 6  7  8  9  10  11  12  13  14  15  16  26  31  32  33  34  35 0
 6-311+G(2d,p)
 ****
 36  37 0
 6-311+G(2d,p)
 ****
 1  2  3  4  5  17  18  19  20  21  22  23  24  25 0
 3-21G
 ****
 27  28  29  30  38  39  40  41  42  43  44  45 0
 3-21G
 ****


