%nproc=1
%NoSave
%Mem=1900MB
#P OB98/GEN NMR

erre ene a

0 1
  C      427.635     844.037     468.625
  O      427.773     843.438     467.345
  H      428.526     843.819     469.212
  H      426.762     843.626     469.133
  H      427.535     845.128     468.529
  P      426.652     843.805     466.255
  C      425.946     841.276     466.354
  O      426.262     842.411     465.562
  C      425.330     840.177     465.489
  O      424.059     840.639     464.961
  C      426.199     839.773     464.289
  O      426.070     838.359     464.092
  C      425.577     840.513     463.119
  O      425.870     839.895     461.875
  C      424.096     840.547     463.522
  N      423.354     841.633     462.887
  C      423.158     841.548     461.512
  O      423.615     840.593     460.887
  N      422.493     842.564     460.870
  C      422.119     843.606     461.539
  N      421.470     844.587     460.838
  C      422.347     843.763     462.991
  C      422.946     842.741     463.608
  O      427.515     844.552     465.140
  O      425.504     844.596     466.796
  H      425.354     840.373     461.172
  H      428.379     844.147     464.963
  H      422.026     844.659     463.511
  H      423.163     842.773     464.659
  H      423.608     839.583     463.244
  H      425.969     841.544     463.087
  H      427.253     840.025     464.415
  H      425.098     839.304     466.122
  H      421.357     844.451     459.851
  H      425.234     841.551     467.136
  H      421.183     845.458     461.251
  H      426.863     840.924     466.821
  P      427.324     837.412     464.362
  C      426.525     836.014     462.344
  O      427.081     835.992     463.647
  O      427.791     837.337     465.777
  O      428.473     838.060     463.421
  H      429.321     838.009     463.916
  H      426.416     835.012     461.986
  H      427.173     836.558     461.689
  H      425.566     836.489     462.373

 6  7  8  9  10  11  12  13  14  15  16  26  30  31  32  33  35 0
 6-311+G(2d,p)
 ****
 37  38 0
 6-311+G(2d,p)
 ****
 1  2  3  4  5  17  18  19  20  21  22  23  24  25 0
 3-21G
 ****
 27  28  29  34  36  39  40  41  42  43  44  45  46 0
 3-21G
 ****


