%nproc=1
%NoSave
%Mem=1900MB
#P OB98/GEN NMR

erre ene a

0 1
  C      489.493     106.566    -261.544
  O      488.350     107.328    -261.904
  P      488.265     108.096    -263.312
  C      489.038     110.207    -262.033
  O      488.101     109.648    -262.940
  C      488.800     111.713    -261.880
  O      489.806     112.253    -260.987
  C      488.871     112.500    -263.194
  O      487.913     113.562    -263.105
  C      490.286     113.051    -263.181
  O      490.436     114.190    -264.020
  C      490.469     113.326    -261.684
  N      491.877     113.409    -261.307
  C      492.367     114.652    -260.890
  O      491.642     115.643    -260.874
  N      493.680     114.743    -260.501
  C      494.459     113.711    -260.599
  N      495.735     113.838    -260.148
  C      494.011     112.408    -261.137
  C      492.721     112.326    -261.442
  O      487.237     107.571    -264.249
  O      489.754     108.049    -263.881
  H      491.305     114.592    -263.840
  H      489.953     107.210    -264.375
  H      494.706     111.588    -261.227
  H      492.292     111.405    -261.816
  H      489.954     114.254    -261.404
  H      490.981     112.278    -263.532
  H      488.648     111.886    -264.074
  H      487.820     111.858    -261.400
  H      495.953     114.683    -259.630
  H      490.043     110.051    -262.435
  H      496.282     113.023    -259.893
  H      488.971     109.699    -261.067
  P      486.841     113.723    -264.290
  C      488.410     114.484    -266.214
  O      487.386     114.836    -265.308
  O      485.653     114.507    -263.548
  O      486.319     112.457    -264.888
  H      484.808     114.318    -264.006
  H      488.648     115.352    -266.830
  H      488.077     113.670    -266.873
  H      489.310     114.178    -265.676
  H      489.346     106.140    -260.573
  H      490.354     107.201    -261.529
  H      489.639     105.783    -262.259

 3  4  5  6  7  8  9  10  11  12  13  23  27  28  29  30  32 0
 6-311+G(2d,p)
 ****
 34  35 0
 6-311+G(2d,p)
 ****
 1  2  14  15  16  17  18  19  20  21  22  24  25  26 0
 3-21G
 ****
 31  33  36  37  38  39  40  41  42  43  44  45  46 0
 3-21G
 ****


