%nproc=1
%NoSave
%Mem=1900MB
#P OB98/GEN NMR

erre ene a

0 1
  C     -351.523     108.472    -159.550
  O     -351.822     107.685    -158.415
  H     -350.491     108.263    -159.861
  H     -351.611     109.536    -159.315
  H     -352.200     108.214    -160.373
  P     -353.286     107.872    -157.778
  C     -352.291     109.446    -155.986
  O     -353.220     109.304    -157.055
  C     -352.079     110.921    -155.640
  O     -353.355     111.483    -155.231
  C     -351.079     111.139    -154.492
  O     -350.300     112.308    -154.770
  C     -351.972     111.394    -153.285
  O     -351.322     112.167    -152.284
  C     -353.178     112.083    -153.941
  N     -356.251     114.378    -150.559
  C     -355.205     114.831    -151.291
  N     -354.444     114.153    -152.177
  C     -354.897     112.894    -152.321
  C     -355.944     112.291    -151.644
  C     -356.638     113.089    -150.724
  N     -357.682     112.624    -149.965
  N     -356.069     110.960    -152.040
  C     -355.121     110.786    -152.937
  N     -354.377     111.915    -153.135
  O     -353.766     106.750    -156.926
  O     -354.162     108.176    -159.075
  H     -351.888     112.179    -151.484
  H     -353.716     108.800    -159.676
  H     -354.936     115.876    -151.125
  H     -354.934     109.854    -153.467
  H     -353.022     113.163    -154.068
  H     -352.267     110.432    -152.848
  H     -350.426     110.282    -154.343
  H     -351.771     111.460    -156.549
  H     -351.332     108.992    -156.269
  H     -358.139     113.286    -149.323
  H     -358.005     111.669    -150.069
  H     -352.683     108.901    -155.126
  P     -348.855     112.122    -155.445
  C     -347.450     111.811    -153.287
  O     -347.961     111.200    -154.477
  O     -348.200     113.367    -155.939
  O     -349.167     111.116    -156.663
  H     -348.629     111.370    -157.436
  H     -346.877     111.095    -152.736
  H     -348.265     112.155    -152.685
  H     -346.827     112.640    -153.551

 6  7  8  9  10  11  12  13  14  15  25  28  32  33  34  35 0
 6-311+G(2d,p)
 ****
 36  39  40 0
 6-311+G(2d,p)
 ****
 1  2  3  4  5  16  17  18  19  20  21  22  23  24 0
 3-21G
 ****
 26  27  29  30  31  37  38  41  42  43  44  45  46  47 0
 3-21G
 ****
 48 0
 3-21G
 ****


