%nproc=1
%NoSave
%Mem=1900MB
#P OB98/GEN NMR

erre ene a

0 1
  C       92.127    -156.631     148.903
  O       92.776    -155.619     149.679
  P       92.099    -155.216     151.083
  C       90.032    -153.705     151.632
  O       91.121    -153.979     150.761
  C       89.372    -152.366     151.272
  O       90.217    -151.264     151.727
  C       89.113    -152.167     149.769
  O       87.866    -151.464     149.656
  C       90.261    -151.276     149.337
  O       89.967    -150.569     148.138
  C       90.424    -150.399     150.584
  N       91.726    -149.732     150.645
  C       91.714    -148.351     150.829
  O       90.680    -147.686     150.860
  N       92.947    -147.757     150.928
  C       94.154    -148.381     150.785
  O       95.227    -147.796     150.886
  C       94.094    -149.820     150.479
  C       92.901    -150.415     150.426
  O       93.333    -154.559     151.856
  O       91.463    -156.378     151.775
  H       93.924    -154.044     151.275
  H       89.994    -151.194     147.387
  H       92.964    -146.755     151.094
  H       95.032    -150.337     150.305
  H       92.823    -151.467     150.178
  H       89.641    -149.628     150.614
  H       91.162    -151.883     149.171
  H       89.056    -153.115     149.219
  H       88.427    -152.293     151.828
  H       90.388    -153.657     152.666
  H       89.312    -154.531     151.578
  P       86.553    -152.308     149.252
  C       85.493    -153.057     146.972
  O       86.399    -152.216     147.659
  O       85.403    -151.311     149.784
  O       86.458    -153.671     149.863
  H       85.551    -150.389     149.517
  H       85.368    -152.676     145.951
  H       84.519    -153.064     147.461
  H       85.896    -154.071     146.926
  H       92.679    -156.799     148.002
  H       91.135    -156.312     148.659
  H       92.081    -157.539     149.467

 3  4  5  6  7  8  9  10  11  12  13  24  28  29  30  31  32 0
 6-311+G(2d,p)
 ****
 33  34 0
 6-311+G(2d,p)
 ****
 1  2  14  15  16  17  18  19  20  21  22  23  25  26  27 0
 3-21G
 ****
 35  36  37  38  39  40  41  42  43  44  45 0
 3-21G
 ****


