%nproc=1
%NoSave
%Mem=1900MB
#P OB98/GEN NMR

erre ene a

0 1
  C     -175.697      83.314    -183.856
  O     -175.069      84.003    -182.795
  P     -175.900      84.536    -181.532
  C     -175.635      86.935    -182.420
  O     -176.546      85.933    -181.992
  C     -176.365      88.109    -183.073
  O     -175.484      89.265    -183.123
  C     -176.854      87.842    -184.504
  O     -178.076      88.572    -184.655
  C     -175.757      88.462    -185.344
  O     -176.173      88.731    -186.678
  C     -175.402      89.691    -184.500
  N     -174.088      90.229    -184.833
  C     -173.980      90.929    -186.038
  O     -174.950      91.008    -186.798
  N     -172.772      91.479    -186.380
  C     -171.735      91.254    -185.637
  N     -170.562      91.830    -186.022
  C     -171.774      90.415    -184.423
  C     -172.975      89.949    -184.077
  O     -175.142      84.587    -180.248
  O     -177.173      83.569    -181.484
  H     -176.913      89.378    -186.648
  H     -176.927      82.691    -181.097
  H     -170.874      90.208    -183.867
  H     -173.102      89.325    -183.204
  H     -176.148      90.485    -184.640
  H     -174.898      87.779    -185.397
  H     -177.007      86.781    -184.724
  H     -177.216      88.377    -182.432
  H     -170.583      92.409    -186.850
  H     -174.962      86.487    -183.157
  H     -169.719      91.787    -185.472
  H     -175.027      87.276    -181.575
  P     -179.265      88.027    -185.581
  C     -179.434      90.075    -187.104
  O     -179.088      88.705    -187.019
  O     -180.632      88.148    -184.991
  O     -178.882      86.492    -185.854
  H     -179.666      86.017    -186.187
  H     -179.016      90.492    -188.025
  H     -179.039      90.634    -186.250
  H     -180.524      90.176    -187.129
  H     -174.966      83.049    -184.591
  H     -176.438      83.944    -184.301
  H     -176.162      82.427    -183.479

 3  4  5  6  7  8  9  10  11  12  13  23  27  28  29  30  32 0
 6-311+G(2d,p)
 ****
 34  35 0
 6-311+G(2d,p)
 ****
 1  2  14  15  16  17  18  19  20  21  22  24  25  26 0
 3-21G
 ****
 31  33  36  37  38  39  40  41  42  43  44  45  46 0
 3-21G
 ****


