%nproc=1
%NoSave
%Mem=1900MB
#P OB98/GEN NMR

erre ene a

0 1
  C     1523.549     790.962     527.183
  O     1522.554     791.916     527.499
  H     1523.905     791.149     526.164
  H     1523.135     789.962     527.235
  H     1524.398     791.050     527.874
  P     1522.057     791.994     529.020
  C     1523.644     794.008     529.459
  O     1523.229     792.703     529.848
  C     1524.595     794.584     530.511
  O     1523.838     794.807     531.736
  C     1525.776     793.669     530.863
  O     1526.908     794.507     531.126
  C     1525.347     793.021     532.162
  O     1526.396     792.545     532.957
  C     1524.557     794.160     532.807
  N     1523.652     793.703     533.854
  C     1524.152     793.643     535.160
  O     1525.255     794.035     535.494
  N     1523.304     793.109     536.097
  C     1522.045     792.610     535.859
  O     1521.343     792.131     536.747
  C     1521.581     792.707     534.460
  C     1522.395     793.232     533.544
  O     1522.132     790.460     529.496
  O     1520.706     792.597     529.221
  H     1521.280     790.015     529.313
  H     1526.771     791.737     532.528
  H     1523.642     793.069     537.035
  H     1520.591     792.306     534.238
  H     1522.075     793.290     532.507
  H     1525.241     794.911     533.229
  H     1524.661     792.183     531.940
  H     1526.019     792.929     530.103
  H     1524.940     795.576     530.170
  H     1522.777     794.650     529.375
  H     1524.152     793.930     528.488
  P     1528.333     793.974     530.576
  C     1528.142     795.818     528.720
  O     1528.400     794.462     529.043
  O     1528.085     792.406     530.486
  O     1529.482     794.380     531.438
  H     1527.169     792.183     530.239
  H     1528.231     795.956     527.663
  H     1528.849     796.445     529.222
  H     1527.151     796.076     529.031

 6  7  8  9  10  11  12  13  14  15  16  27  31  32  33  34  35 0
 6-311+G(2d,p)
 ****
 36  37 0
 6-311+G(2d,p)
 ****
 1  2  3  4  5  17  18  19  20  21  22  23  24  25 0
 3-21G
 ****
 26  28  29  30  38  39  40  41  42  43  44  45 0
 3-21G
 ****


