%nproc=1
%NoSave
%Mem=1900MB
#P OB98/GEN NMR

erre ene a

0 1
  C      137.701    -732.202    -330.934
  O      137.292    -732.089    -329.568
  P      138.200    -732.596    -328.344
  C      140.739    -732.766    -327.907
  O      139.687    -732.019    -328.508
  C      142.087    -732.050    -328.027
  O      142.508    -731.982    -329.400
  C      142.089    -730.607    -327.529
  O      142.099    -730.554    -326.114
  C      143.347    -730.066    -328.202
  O      144.524    -730.407    -327.449
  C      143.327    -730.804    -329.557
  N      142.849    -729.961    -330.643
  C      143.679    -729.863    -331.769
  O      144.772    -730.421    -331.789
  N      143.252    -729.108    -332.834
  C      142.137    -728.455    -332.751
  N      141.757    -727.726    -333.842
  C      141.273    -728.453    -331.552
  C      141.694    -729.222    -330.552
  O      138.143    -734.075    -328.115
  O      137.641    -731.812    -327.060
  H      145.289    -730.134    -327.992
  H      137.760    -732.369    -326.269
  H      140.368    -727.870    -331.515
  H      141.114    -729.290    -329.631
  H      144.332    -731.168    -329.807
  H      143.333    -728.975    -328.302
  H      141.207    -730.081    -327.922
  H      142.833    -732.645    -327.474
  H      142.366    -727.749    -334.655
  H      140.801    -733.740    -328.414
  H      140.911    -727.184    -333.884
  H      140.491    -732.938    -326.853
  P      140.734    -730.304    -325.315
  C      139.215    -732.109    -324.298
  O      139.834    -731.618    -325.477
  O      140.041    -729.014    -325.610
  O      141.180    -730.374    -323.769
  H      140.605    -729.780    -323.250
  H      138.348    -732.710    -324.582
  H      138.875    -731.284    -323.661
  H      139.926    -732.730    -323.751
  H      136.939    -731.800    -331.569
  H      137.859    -733.232    -331.175
  H      138.611    -731.658    -331.080

 3  4  5  6  7  8  9  10  11  12  13  23  27  28  29  30  32 0
 6-311+G(2d,p)
 ****
 34  35 0
 6-311+G(2d,p)
 ****
 1  2  14  15  16  17  18  19  20  21  22  24  25  26 0
 3-21G
 ****
 31  33  36  37  38  39  40  41  42  43  44  45  46 0
 3-21G
 ****


