%nproc=1
%NoSave
%Mem=1900MB
#P OB98/GEN NMR

erre ene a

0 1
  C      529.830    -133.891      24.371
  O      531.158    -133.348      24.294
  P      531.504    -132.070      23.385
  C      532.091    -129.610      23.897
  O      531.299    -130.742      24.266
  C      531.685    -128.356      24.684
  O      530.308    -128.019      24.427
  C      531.815    -128.481      26.194
  O      533.167    -128.331      26.593
  C      530.874    -127.378      26.669
  O      531.537    -126.098      26.612
  C      529.748    -127.450      25.630
  N      525.248    -127.244      28.065
  C      526.153    -126.291      27.741
  N      527.334    -126.424      27.097
  C      527.535    -127.708      26.756
  C      526.712    -128.787      27.019
  C      525.522    -128.524      27.712
  N      524.622    -129.507      28.060
  N      527.278    -129.960      26.542
  C      528.407    -129.577      25.972
  N      528.612    -128.225      26.074
  O      530.802    -132.047      22.071
  O      533.092    -132.136      23.180
  H      532.272    -126.121      27.245
  H      533.333    -131.709      22.337
  H      525.883    -125.277      28.038
  H      529.105    -130.244      25.476
  H      529.382    -126.449      25.363
  H      530.540    -127.526      27.700
  H      531.431    -129.456      26.526
  H      532.296    -127.522      24.314
  H      531.955    -129.432      22.824
  H      523.803    -129.242      28.589
  H      524.837    -130.470      27.838
  H      533.137    -129.847      24.093
  P      533.956    -129.573      27.238
  C      533.952    -131.994      26.387
  O      534.208    -130.638      26.068
  O      533.370    -130.130      28.496
  O      535.423    -128.987      27.493
  H      535.832    -129.441      28.256
  H      534.811    -132.400      26.933
  H      533.824    -132.549      25.464
  H      533.050    -132.093      26.984
  H      529.827    -134.734      25.030
  H      529.513    -134.199      23.396
  H      529.161    -133.144      24.744

 3  4  5  6  7  8  9  10  11  12  22  25  29  30  31  32 0
 6-311+G(2d,p)
 ****
 33  36  37 0
 6-311+G(2d,p)
 ****
 1  2  13  14  15  16  17  18  19  20  21  23  24  26 0
 3-21G
 ****
 27  28  34  35  38  39  40  41  42  43  44  45  46  47  48 0
 3-21G
 ****


