%nproc=1
%NoSave
%Mem=1900MB
#P OB98/GEN NMR

erre ene a

0 1
  C      161.232     323.301      51.198
  O      161.879     322.044      51.129
  P      161.387     320.822      52.036
  C      163.809     320.696      52.862
  O      162.684     319.951      52.417
  C      164.657     319.890      53.844
  O      163.902     319.694      55.072
  C      165.076     318.501      53.339
  O      166.372     318.239      53.887
  C      164.052     317.585      53.991
  O      164.487     316.233      54.065
  C      163.890     318.276      55.340
  N      161.787     316.773      59.749
  C      163.069     316.997      59.397
  N      163.553     317.371      58.194
  C      162.556     317.514      57.305
  C      161.203     317.290      57.509
  C      160.820     316.916      58.811
  N      159.513     316.716      59.196
  N      160.501     317.486      56.336
  C      161.411     317.821      55.446
  N      162.657     317.912      56.002
  O      160.250     320.032      51.480
  O      160.991     321.506      53.427
  H      164.828     315.971      53.189
  H      160.018     321.535      53.517
  H      163.806     316.866      60.185
  H      161.226     318.006      54.397
  H      164.720     318.053      56.022
  H      163.120     317.610      53.415
  H      165.089     318.410      52.250
  H      165.540     320.486      54.101
  H      163.440     321.599      53.360
  H      159.341     316.583      60.180
  H      158.766     317.070      58.601
  H      164.416     321.002      52.001
  P      167.324     317.151      53.195
  C      167.655     315.976      55.446
  O      168.292     316.598      54.344
  O      168.005     317.599      51.945
  O      166.342     315.912      52.923
  H      166.746     315.316      52.266
  H      167.290     316.745      56.133
  H      168.379     315.346      55.968
  H      166.817     315.357      55.118
  H      161.703     323.982      50.521
  H      161.301     323.684      52.195
  H      160.202     323.187      50.930

 3  4  5  6  7  8  9  10  11  12  22  25  29  30  31  32 0
 6-311+G(2d,p)
 ****
 33  36  37 0
 6-311+G(2d,p)
 ****
 1  2  13  14  15  16  17  18  19  20  21  23  24  26 0
 3-21G
 ****
 27  28  34  35  38  39  40  41  42  43  44  45  46  47  48 0
 3-21G
 ****


