%nproc=1
%NoSave
%Mem=1900MB
#P OB98/GEN NMR

erre ene a

0 1
  C     -514.058     346.819    -914.862
  O     -513.380     347.480    -913.810
  H     -513.568     347.068    -915.809
  H     -515.098     347.153    -914.925
  H     -514.021     345.736    -914.717
  P     -514.007     347.405    -912.333
  C     -511.826     346.567    -911.212
  O     -512.774     347.624    -911.334
  C     -510.440     347.135    -910.934
  O     -510.014     347.975    -912.032
  C     -510.382     348.023    -909.692
  O     -510.396     347.230    -908.514
  C     -509.106     348.799    -909.946
  O     -507.947     348.031    -909.612
  C     -509.197     349.041    -911.476
  N     -509.728     350.358    -911.812
  C     -508.956     351.454    -911.429
  O     -507.872     351.274    -910.841
  N     -509.422     352.710    -911.700
  C     -510.548     352.871    -912.322
  N     -510.952     354.142    -912.556
  C     -511.401     351.744    -912.754
  C     -510.927     350.521    -912.474
  O     -514.854     346.206    -912.025
  O     -514.830     348.773    -912.210
  H     -507.896     348.028    -908.640
  H     -515.751     348.653    -912.517
  H     -512.326     351.909    -913.267
  H     -511.492     349.627    -912.763
  H     -508.196     348.937    -911.939
  H     -509.080     349.717    -909.366
  H     -511.221     348.721    -909.692
  H     -509.727     346.298    -910.854
  H     -510.352     354.890    -912.231
  H     -511.838     346.018    -912.155
  H     -511.770     354.389    -913.108
  H     -512.117     345.875    -910.407
  P     -511.702     347.187    -907.581
  C     -510.827     344.934    -906.651
  O     -511.290     346.251    -906.330
  O     -512.968     346.817    -908.266
  O     -511.729     348.655    -906.922
  H     -512.035     349.320    -907.585
  H     -510.585     344.411    -905.749
  H     -509.955     345.003    -907.268
  H     -511.594     344.404    -907.176

 6  7  8  9  10  11  12  13  14  15  16  26  30  31  32  33  35 0
 6-311+G(2d,p)
 ****
 37  38 0
 6-311+G(2d,p)
 ****
 1  2  3  4  5  17  18  19  20  21  22  23  24  25 0
 3-21G
 ****
 27  28  29  34  36  39  40  41  42  43  44  45  46 0
 3-21G
 ****


