%nproc=1
%NoSave
%Mem=1900MB
#P OB98/GEN NMR

erre ene a

0 1
  C      -43.321    -214.377      12.607
  O      -44.436    -215.156      12.206
  P      -45.455    -215.722      13.304
  C      -44.069    -217.924      13.408
  O      -44.681    -216.869      14.116
  C      -44.487    -219.289      13.975
  O      -43.906    -219.414      15.299
  C      -45.989    -219.473      14.161
  O      -46.262    -220.872      14.284
  C      -46.227    -218.790      15.491
  O      -47.443    -219.206      16.104
  C      -44.934    -219.133      16.279
  N      -44.522    -218.019      17.152
  C      -45.372    -217.694      18.208
  O      -46.385    -218.337      18.470
  N      -45.061    -216.552      18.896
  C      -44.032    -215.706      18.598
  O      -43.953    -214.554      19.014
  C      -43.043    -216.223      17.642
  C      -43.338    -217.327      16.951
  O      -46.516    -216.534      12.417
  O      -46.114    -214.683      14.146
  H      -47.615    -218.584      16.851
  H      -47.297    -215.978      12.239
  H      -45.757    -216.240      19.565
  H      -42.132    -215.652      17.487
  H      -42.650    -217.705      16.197
  H      -45.073    -220.022      16.908
  H      -46.291    -217.707      15.331
  H      -46.599    -219.037      13.363
  H      -44.073    -220.087      13.348
  H      -42.982    -217.805      13.447
  H      -44.345    -217.881      12.346
  P      -47.364    -221.511      13.304
  C      -49.196    -221.145      15.067
  O      -48.775    -220.889      13.741
  O      -47.330    -222.998      13.166
  O      -47.068    -220.779      11.906
  H      -47.465    -221.290      11.176
  H      -49.823    -220.313      15.404
  H      -48.344    -221.245      15.745
  H      -49.787    -222.067      15.085
  H      -42.758    -214.090      11.744
  H      -42.701    -214.952      13.262
  H      -43.663    -213.501      13.118

 3  4  5  6  7  8  9  10  11  12  13  23  28  29  30  31  32 0
 6-311+G(2d,p)
 ****
 33  34 0
 6-311+G(2d,p)
 ****
 1  2  14  15  16  17  18  19  20  21  22  24  25  26  27 0
 3-21G
 ****
 35  36  37  38  39  40  41  42  43  44  45 0
 3-21G
 ****


