%nproc=1
%NoSave
%Mem=1900MB
#P OB98/GEN NMR

erre ene a

0 1
  C     -101.266     147.708      62.807
  O     -102.296     147.144      63.630
  P     -103.841     147.090      63.199
  C     -103.851     144.709      62.181
  O     -104.314     145.555      63.228
  C     -104.717     143.452      62.075
  O     -104.411     142.731      60.858
  C     -104.509     142.425      63.178
  O     -105.075     142.831      64.410
  C     -105.164     141.190      62.562
  O     -106.582     141.186      62.781
  C     -104.864     141.373      61.062
  N     -103.894     140.416      60.556
  C     -104.028     140.035      59.219
  O     -104.977     140.438      58.548
  N     -103.088     139.191      58.680
  C     -102.162     138.690      59.436
  N     -101.248     137.874      58.844
  C     -102.068     138.960      60.883
  C     -102.955     139.825      61.371
  O     -104.135     147.784      61.909
  O     -104.643     147.762      64.410
  H     -105.479     148.139      64.079
  H     -106.949     141.929      62.262
  H     -101.306     138.488      61.486
  H     -102.948     140.091      62.423
  H     -105.789     141.288      60.480
  H     -104.770     140.260      62.986
  H     -103.434     142.241      63.303
  H     -105.769     143.766      62.040
  H     -101.335     137.718      57.848
  H     -102.821     144.411      62.407
  H     -100.475     137.451      59.337
  H     -103.852     145.267      61.239
  P     -104.118     142.792      65.697
  C     -103.075     145.117      66.188
  O     -104.165     144.237      66.384
  O     -102.646     142.713      65.070
  O     -104.374     141.648      66.623
  H     -102.093     142.115      65.606
  H     -103.436     146.145      66.272
  H     -102.617     144.980      65.204
  H     -102.327     144.941      66.965
  H     -100.324     147.627      63.309
  H     -101.483     148.739      62.620
  H     -101.222     147.179      61.878

 3  4  5  6  7  8  9  10  11  12  13  24  27  28  29  30  32 0
 6-311+G(2d,p)
 ****
 34  35 0
 6-311+G(2d,p)
 ****
 1  2  14  15  16  17  18  19  20  21  22  23  25  26 0
 3-21G
 ****
 31  33  36  37  38  39  40  41  42  43  44  45  46 0
 3-21G
 ****


