%nproc=1
%NoSave
%Mem=1900MB
#P OB98/GEN NMR

erre ene a

0 1
  C      753.758    -910.622     269.899
  O      753.263    -910.029     268.713
  H      753.877    -911.689     269.715
  H      753.059    -910.479     270.717
  H      754.732    -910.210     270.143
  P      752.944    -908.454     268.719
  C      750.416    -908.607     268.220
  O      751.419    -908.296     269.175
  C      749.124    -907.860     268.532
  O      749.405    -906.420     268.421
  C      747.970    -908.183     267.543
  O      746.775    -908.578     268.213
  C      747.928    -906.958     266.629
  O      746.661    -906.737     266.030
  C      748.424    -905.831     267.536
  N      749.002    -904.710     266.821
  C      748.133    -903.715     266.369
  O      746.918    -903.693     266.554
  N      748.725    -902.676     265.682
  C      750.055    -902.543     265.399
  O      750.511    -901.595     264.767
  C      750.917    -903.640     265.867
  C      750.364    -904.647     266.541
  O      753.297    -907.727     267.464
  O      753.765    -907.903     269.970
  H      746.097    -906.341     266.711
  H      754.550    -907.418     269.657
  H      748.103    -901.947     265.375
  H      751.971    -903.581     265.649
  H      750.985    -905.478     266.901
  H      747.619    -905.446     268.159
  H      748.652    -907.112     265.807
  H      748.230    -909.072     266.953
  H      748.827    -908.058     269.564
  H      750.234    -909.696     268.249
  H      750.763    -908.342     267.207
  P      746.022    -909.980     267.991
  C      745.000    -909.863     265.566
  O      746.043    -910.328     266.428
  O      744.725    -910.110     268.700
  O      747.054    -911.069     268.615
  H      746.495    -911.767     268.974
  H      745.189    -910.195     264.566
  H      744.970    -908.794     265.587
  H      744.061    -910.253     265.900

 6  7  8  9  10  11  12  13  14  15  16  26  31  32  33  34  35 0
 6-311+G(2d,p)
 ****
 36  37 0
 6-311+G(2d,p)
 ****
 1  2  3  4  5  17  18  19  20  21  22  23  24  25 0
 3-21G
 ****
 27  28  29  30  38  39  40  41  42  43  44  45 0
 3-21G
 ****


