%nproc=1
%NoSave
%Mem=1900MB
#P OB98/GEN NMR

erre ene a

0 1
  C     -162.177     370.253     -55.236
  O     -163.012     369.314     -54.557
  P     -164.325     369.911     -53.847
  C     -164.902     371.046     -51.585
  O     -163.894     370.481     -52.410
  C     -164.284     371.913     -50.488
  O     -163.441     371.154     -49.600
  C     -163.414     373.038     -51.030
  O     -164.225     374.117     -51.462
  C     -162.561     373.380     -49.809
  O     -163.250     374.291     -48.927
  C     -162.368     372.016     -49.135
  N     -157.391     372.137     -48.171
  C     -158.378     373.048     -47.844
  N     -157.989     374.134     -47.145
  N     -159.636     372.905     -48.179
  C     -159.882     371.772     -48.876
  C     -158.993     370.783     -49.230
  C     -157.603     370.954     -48.863
  O     -156.698     370.162     -49.102
  N     -159.626     369.752     -49.882
  C     -160.867     370.180     -50.029
  N     -161.091     371.372     -49.384
  O     -165.189     368.606     -53.506
  O     -165.087     370.865     -54.713
  H     -162.669     374.515     -48.184
  H     -165.980     368.574     -54.078
  H     -156.437     372.298     -47.892
  H     -161.641     369.660     -50.573
  H     -162.465     372.092     -48.044
  H     -161.628     373.881     -50.094
  H     -157.039     374.306     -46.852
  H     -162.777     372.665     -51.842
  H     -158.699     374.815     -46.895
  H     -165.107     372.333     -49.895
  H     -165.504     370.250     -51.135
  H     -165.581     371.634     -52.213
  P     -164.602     374.191     -53.021
  C     -163.270     374.386     -55.237
  O     -163.235     374.142     -53.847
  O     -165.108     375.699     -53.200
  O     -165.651     373.214     -53.451
  H     -165.922     375.707     -53.743
  H     -162.317     374.829     -55.543
  H     -164.082     375.071     -55.506
  H     -163.409     373.441     -55.769
  H     -161.341     369.742     -55.665
  H     -161.827     370.987     -54.541
  H     -162.737     370.734     -56.011

 3  4  5  6  7  8  9  10  11  12  23  26  30  31 0
 6-311+G(2d,p)
 ****
 33  35  36  37  38 0
 6-311+G(2d,p)
 ****
 1  2  13  14  15  16  17  18  19  20  21  22  24  25 0
 3-21G
 ****
 27  28  29  32  34  39  40  41  42  43  44  45  46  47  48  49 0
 3-21G
 ****


