%nproc=1
%NoSave
%Mem=1900MB
#P OB98/GEN NMR

erre ene a

0 1
  C      303.746    -317.233    -180.834
  O      303.561    -316.027    -181.568
  P      304.823    -315.455    -182.379
  C      307.296    -315.238    -181.626
  O      305.926    -315.103    -181.268
  C      308.188    -315.035    -180.408
  O      307.910    -316.050    -179.428
  C      309.680    -315.146    -180.695
  O      310.207    -313.946    -181.238
  C      310.227    -315.402    -179.299
  O      310.356    -314.155    -178.591
  C      309.122    -316.267    -178.664
  N      311.287    -320.068    -176.111
  C      311.160    -318.732    -175.776
  N      311.662    -318.363    -174.577
  N      310.602    -317.838    -176.545
  C      310.110    -318.357    -177.696
  C      310.169    -319.661    -178.138
  C      310.843    -320.630    -177.298
  O      311.041    -321.812    -177.575
  N      309.546    -319.807    -179.352
  C      309.076    -318.604    -179.624
  N      309.416    -317.685    -178.663
  O      304.316    -314.016    -182.866
  O      305.278    -316.298    -183.521
  H      309.475    -313.728    -178.601
  H      304.804    -313.745    -183.667
  H      311.713    -320.713    -175.472
  H      308.489    -318.360    -180.499
  H      308.915    -315.953    -177.638
  H      311.219    -315.869    -179.307
  H      311.988    -319.025    -173.887
  H      309.895    -316.008    -181.337
  H      311.549    -317.398    -174.297
  H      307.955    -314.059    -179.969
  H      307.544    -314.482    -182.379
  H      307.452    -316.227    -182.063
  P      311.467    -314.097    -182.226
  C      313.976    -314.550    -181.730
  O      312.758    -313.988    -181.283
  O      311.462    -312.718    -183.039
  O      311.403    -315.284    -183.125
  H      311.891    -312.837    -183.908
  H      314.100    -314.427    -182.812
  H      314.003    -315.611    -181.481
  H      314.801    -314.045    -181.224
  H      302.831    -317.497    -180.346
  H      304.513    -317.091    -180.102
  H      304.033    -318.017    -181.503

 3  4  5  6  7  8  9  10  11  12  23  26  30  31  33  0
 6-311+G(2d,p)
 ****
 35  36  37  38 0
 6-311+G(2d,p)
 ****
 1  2  13  14  15  16  17  18  19  20  21  22  24  25  27  28  29 0
 3-21G
 ****
 32  34  39  40  41  42  43  44  45  46  47  48  49 0
 3-21G
 ****


