%nproc=1
%NoSave
%Mem=1900MB
#P OB98/GEN NMR

erre ene a

0 1
  C      -19.079    -110.789      86.989
  O      -18.203    -109.898      87.650
  P      -17.136    -109.013      86.841
  C      -15.023    -110.045      87.881
  O      -15.820    -109.926      86.713
  C      -13.614    -110.536      87.545
  O      -13.693    -111.830      86.884
  C      -12.810    -109.598      86.631
  O      -11.442    -109.715      87.036
  C      -13.014    -110.222      85.263
  O      -12.037    -109.807      84.319
  C      -13.001    -111.714      85.621
  N      -13.611    -112.532      84.579
  C      -12.761    -113.382      83.867
  O      -11.547    -113.362      84.075
  N      -13.296    -114.195      82.900
  C      -14.553    -114.089      82.598
  N      -15.027    -114.923      81.634
  C      -15.458    -113.116      83.236
  C      -14.932    -112.387      84.219
  O      -16.903    -107.646      87.388
  O      -17.704    -109.014      85.344
  H      -12.211    -110.268      83.469
  H      -18.463    -108.384      85.265
  H      -16.484    -113.025      82.914
  H      -15.517    -111.647      84.747
  H      -11.971    -112.065      85.779
  H      -13.998    -109.936      84.871
  H      -13.139    -108.558      86.673
  H      -13.075    -110.688      88.489
  H      -14.376    -115.586      81.231
  H      -15.499    -110.773      88.544
  H      -16.004    -114.981      81.383
  H      -14.985    -109.087      88.409
  P      -10.571    -108.423      87.414
  C       -9.982    -107.966      84.964
  O      -10.591    -107.457      86.137
  O       -9.212    -108.716      87.961
  O      -11.473    -107.636      88.482
  H      -10.921    -106.980      88.951
  H      -10.296    -107.362      84.108
  H      -10.273    -109.007      84.792
  H       -8.894    -107.905      85.062
  H      -19.703    -111.276      87.709
  H      -18.508    -111.522      86.458
  H      -19.689    -110.244      86.299

 3  4  5  6  7  8  9  10  11  12  13  23  27  28  29  30  32 0
 6-311+G(2d,p)
 ****
 34  35 0
 6-311+G(2d,p)
 ****
 1  2  14  15  16  17  18  19  20  21  22  24  25  26 0
 3-21G
 ****
 31  33  36  37  38  39  40  41  42  43  44  45  46 0
 3-21G
 ****


