%nproc=1
%NoSave
%Mem=1900MB
#P OB98/GEN NMR

erre ene a

0 1
  C      146.250    -179.968     -69.706
  O      147.176    -178.988     -70.129
  H      146.252    -180.007     -68.613
  H      146.538    -180.950     -70.094
  H      145.242    -179.715     -70.048
  P      147.246    -178.685     -71.701
  C      149.308    -180.214     -72.160
  O      147.926    -179.975     -72.379
  C      149.711    -181.548     -72.788
  O      151.161    -181.596     -72.880
  C      149.264    -182.767     -71.968
  O      148.892    -183.820     -72.858
  C      150.523    -183.155     -71.206
  O      150.546    -184.514     -70.791
  C      151.604    -182.810     -72.239
  N      152.919    -182.626     -71.633
  C      154.015    -183.144     -72.314
  O      153.968    -183.678     -73.422
  N      155.220    -183.031     -71.668
  C      155.426    -182.484     -70.435
  O      156.527    -182.430     -69.896
  C      154.225    -181.968     -69.761
  C      153.047    -182.060     -70.381
  O      148.396    -177.572     -71.813
  O      145.971    -178.254     -72.339
  H      148.009    -176.676     -71.746
  H      150.408    -185.072     -71.584
  H      156.030    -183.398     -72.148
  H      154.352    -181.536     -68.775
  H      152.145    -181.696     -69.906
  H      151.654    -183.590     -73.008
  H      150.630    -182.527     -70.314
  H      148.436    -182.542     -71.292
  H      149.317    -181.597     -73.814
  H      149.497    -180.249     -71.082
  H      149.891    -179.396     -72.599
  P      147.339    -184.229     -72.910
  C      147.560    -186.368     -71.421
  O      147.054    -185.050     -71.559
  O      147.339    -185.339     -74.058
  O      146.438    -183.059     -73.154
  H      148.134    -185.901     -74.054
  H      147.277    -186.760     -70.467
  H      148.627    -186.350     -71.497
  H      147.157    -186.988     -72.195

 6  7  8  9  10  11  12  13  14  15  16  27  31  32  33  34  35 0
 6-311+G(2d,p)
 ****
 36  37 0
 6-311+G(2d,p)
 ****
 1  2  3  4  5  17  18  19  20  21  22  23  24  25 0
 3-21G
 ****
 26  28  29  30  38  39  40  41  42  43  44  45 0
 3-21G
 ****


