%nproc=1
%NoSave
%Mem=1900MB
#P OB98/GEN NMR

erre ene a

0 1
  C       11.142     883.602     149.914
  O       11.740     884.804     150.358
  P       12.845     885.483     149.413
  C       15.056     884.713     148.265
  O       13.961     884.376     149.110
  C       16.370     884.352     148.968
  O       16.331     883.001     149.472
  C       17.586     884.413     148.046
  O       18.015     885.748     147.844
  C       18.591     883.554     148.804
  O       19.258     884.317     149.827
  C       17.679     882.483     149.440
  N       17.753     881.196     148.751
  C       18.937     880.495     148.887
  O       19.901     880.927     149.535
  N       19.012     879.301     148.229
  C       18.052     878.780     147.411
  O       18.203     877.725     146.795
  C       16.825     879.575     147.271
  C       16.733     880.731     147.929
  O       13.582     886.523     150.370
  O       12.291     886.144     148.192
  H       19.663     885.086     149.377
  H       13.834     887.325     149.866
  H       19.855     878.762     148.331
  H       16.046     879.188     146.639
  H       15.846     881.351     147.836
  H       17.962     882.320     150.485
  H       19.366     883.155     148.149
  H       17.345     883.922     147.087
  H       16.509     885.032     149.819
  H       15.032     885.777     148.047
  H       14.957     884.158     147.327
  P       18.857     886.042     146.503
  C       21.041     884.995     145.505
  O       20.062     884.973     146.520
  O       19.535     887.444     146.868
  O       18.007     886.072     145.279
  H       19.730     887.515     147.830
  H       21.263     886.021     145.184
  H       20.694     884.418     144.654
  H       21.959     884.547     145.886
  H       10.431     883.268     150.640
  H       11.897     882.855     149.784
  H       10.646     883.774     148.982

 3  4  5  6  7  8  9  10  11  12  13  23  28  29  30  31  32 0
 6-311+G(2d,p)
 ****
 33  34 0
 6-311+G(2d,p)
 ****
 1  2  14  15  16  17  18  19  20  21  22  24  25  26 0
 3-21G
 ****
 27  35  36  37  38  39  40  41  42  43  44  45 0
 3-21G
 ****


