%nproc=1
%NoSave
%Mem=1900MB
#P OB98/GEN NMR

erre ene a

0 1
  C     -222.757      -4.788      19.525
  O     -223.574      -4.585      18.388
  H     -222.856      -5.818      19.878
  H     -221.715      -4.608      19.248
  H     -223.037      -4.092      20.321
  P     -225.148      -4.823      18.593
  C     -226.779      -6.792      18.194
  O     -225.424      -6.378      18.293
  C     -226.877      -8.307      18.367
  O     -226.136      -8.933      17.287
  C     -226.313      -8.826      19.701
  O     -227.254      -9.697      20.345
  C     -225.098      -9.642      19.297
  O     -224.885     -10.772      20.133
  C     -225.427     -10.040      17.862
  N     -221.853     -13.575      17.005
  C     -223.095     -13.673      17.512
  N     -224.034     -12.712      17.626
  C     -223.589     -11.547      17.112
  C     -222.349     -11.302      16.540
  C     -221.444     -12.377      16.514
  N     -220.157     -12.266      16.046
  N     -222.251      -9.984      16.131
  C     -223.395      -9.434      16.496
  N     -224.228     -10.335      17.101
  O     -225.798      -4.073      17.334
  O     -225.692      -4.302      19.881
  H     -224.071     -11.213      19.828
  H     -226.379      -3.358      17.658
  H     -223.379     -14.656      17.885
  H     -223.650      -8.388      16.382
  H     -226.084     -10.917      17.823
  H     -224.207      -9.004      19.338
  H     -226.041      -8.017      20.383
  H     -227.926      -8.607      18.251
  H     -227.176      -6.520      17.208
  H     -219.539     -13.053      16.172
  H     -219.816     -11.349      15.782
  H     -227.367      -6.282      18.964
  P     -227.302      -9.622      21.950
  C     -225.706     -10.200      23.921
  O     -225.876     -10.114      22.511
  O     -228.302     -10.812      22.339
  O     -227.779      -8.313      22.480
  H     -229.038     -10.463      22.876
  H     -224.715     -10.538      24.141
  H     -226.417     -10.891      24.324
  H     -225.859      -9.235      24.358

 6  7  8  9  10  11  12  13  14  15  25  28  32  33  34  35 0
 6-311+G(2d,p)
 ****
 36  39  40 0
 6-311+G(2d,p)
 ****
 1  2  3  4  5  16  17  18  19  20  21  22  23  24 0
 3-21G
 ****
 26  27  29  30  31  37  38  41  42  43  44  45  46  47  48 0
 3-21G
 ****


