%nproc=1
%NoSave
%Mem=1900MB
#P OB98/GEN NMR

erre ene a

0 1
  C     1037.573     -65.728    -302.108
  O     1038.922     -66.017    -302.409
  H     1037.145     -65.159    -302.951
  H     1037.512     -65.106    -301.210
  H     1036.994     -66.642    -301.971
  P     1039.741     -66.966    -301.416
  C     1041.890     -66.843    -302.850
  O     1041.293     -66.584    -301.585
  C     1043.016     -65.851    -303.101
  O     1042.487     -64.510    -303.221
  C     1044.043     -65.782    -301.981
  O     1044.919     -66.895    -302.031
  C     1044.704     -64.442    -302.271
  O     1045.677     -64.573    -303.312
  C     1043.495     -63.604    -302.743
  N     1042.966     -62.725    -301.676
  C     1042.588     -61.447    -302.064
  O     1042.712     -61.018    -303.214
  N     1042.107     -60.653    -301.060
  C     1042.051     -60.963    -299.738
  O     1041.681     -60.180    -298.867
  C     1042.486     -62.320    -299.383
  C     1042.927     -63.136    -300.367
  O     1039.441     -68.424    -301.507
  O     1039.397     -66.385    -299.963
  H     1046.432     -65.065    -302.924
  H     1038.765     -66.984    -299.516
  H     1041.826     -59.711    -301.308
  H     1042.455     -62.611    -298.351
  H     1043.253     -64.128    -300.122
  H     1043.788     -62.969    -303.590
  H     1045.223     -64.037    -301.396
  H     1043.535     -65.728    -301.016
  H     1043.495     -66.098    -304.062
  H     1041.120     -66.724    -303.626
  H     1042.266     -67.864    -302.865
  P     1045.041     -67.865    -300.760
  C     1046.632     -69.397    -302.077
  O     1046.438     -68.653    -300.883
  O     1043.849     -68.721    -300.491
  O     1045.297     -66.860    -299.536
  H     1044.589     -66.961    -298.887
  H     1047.589     -69.875    -302.048
  H     1046.588     -68.738    -302.919
  H     1045.865     -70.138    -302.164

 6  7  8  9  10  11  12  13  14  15  16  26  31  32  33  34  35 0
 6-311+G(2d,p)
 ****
 36  37 0
 6-311+G(2d,p)
 ****
 1  2  3  4  5  17  18  19  20  21  22  23  24  25 0
 3-21G
 ****
 27  28  29  30  38  39  40  41  42  43  44  45 0
 3-21G
 ****


