%nproc=1
%NoSave
%Mem=1900MB
#P OB98/GEN NMR

erre ene a

0 1
  C      -52.514    -136.879    -284.171
  O      -51.810    -135.665    -283.995
  P      -51.067    -135.342    -282.617
  C      -48.622    -135.144    -283.356
  O      -49.586    -135.962    -282.706
  C      -47.537    -134.687    -282.385
  O      -48.165    -134.091    -281.217
  C      -46.612    -135.807    -281.884
  O      -45.316    -135.221    -281.699
  C      -47.206    -136.152    -280.529
  O      -46.284    -136.813    -279.669
  C      -47.633    -134.767    -280.058
  N      -48.540    -135.957    -275.170
  C      -47.431    -136.075    -275.933
  N      -47.277    -135.759    -277.236
  C      -48.420    -135.274    -277.744
  C      -49.639    -135.125    -277.100
  C      -49.672    -135.478    -275.739
  N      -50.785    -135.334    -274.937
  N      -50.594    -134.650    -277.978
  C      -49.963    -134.513    -279.126
  N      -48.635    -134.819    -279.016
  O      -51.822    -135.712    -281.384
  O      -50.801    -133.765    -282.679
  H      -46.732    -136.995    -278.821
  H      -51.415    -133.303    -282.077
  H      -46.551    -136.467    -275.431
  H      -50.416    -134.206    -280.057
  H      -46.788    -134.179    -279.681
  H      -48.073    -136.811    -280.666
  H      -46.555    -136.668    -282.552
  H      -46.951    -133.897    -282.871
  H      -49.139    -134.266    -283.759
  H      -50.660    -135.489    -273.949
  H      -51.547    -134.738    -275.257
  H      -48.172    -135.694    -284.192
  P      -44.011    -135.978    -282.246
  C      -43.948    -134.770    -284.498
  O      -44.135    -136.010    -283.840
  O      -43.722    -137.293    -281.600
  O      -42.833    -134.921    -281.991
  H      -41.973    -135.379    -282.025
  H      -44.871    -134.185    -284.446
  H      -43.704    -134.957    -285.548
  H      -43.134    -134.197    -284.042
  H      -52.938    -136.906    -285.153
  H      -53.295    -136.947    -283.443
  H      -51.841    -137.702    -284.050

 3  4  5  6  7  8  9  10  11  12  22  25  29  30  31  32 0
 6-311+G(2d,p)
 ****
 33  36  37 0
 6-311+G(2d,p)
 ****
 1  2  13  14  15  16  17  18  19  20  21  23  24  26 0
 3-21G
 ****
 27  28  34  35  38  39  40  41  42  43  44  45  46  47  48 0
 3-21G
 ****


