%nproc=1
%NoSave
%Mem=1900MB
#P OB98/GEN NMR

erre ene a

0 1
  C      -71.349      49.967      51.070
  O      -70.827      50.578      52.258
  P      -71.463      50.363      53.716
  C      -73.743      50.771      54.874
  O      -73.011      50.786      53.653
  C      -75.239      50.969      54.614
  O      -75.501      52.331      54.195
  C      -75.821      50.119      53.494
  O      -75.965      48.760      53.865
  C      -77.141      50.840      53.227
  O      -78.166      50.408      54.134
  C      -76.774      52.310      53.510
  N      -76.735      53.126      52.308
  C      -77.959      53.384      51.684
  O      -78.994      52.865      52.103
  N      -77.975      54.213      50.589
  C      -76.859      54.656      50.098
  N      -76.939      55.488      49.024
  C      -75.538      54.296      50.646
  C      -75.550      53.538      51.741
  O      -70.702      51.032      54.814
  O      -71.507      48.776      53.929
  H      -71.476      48.574      54.883
  H      -78.337      49.466      53.939
  H      -74.631      54.652      50.180
  H      -74.622      53.238      52.216
  H      -77.489      52.747      54.217
  H      -77.511      50.660      52.213
  H      -75.178      50.198      52.607
  H      -75.776      50.783      55.553
  H      -77.862      55.723      48.679
  H      -73.383      51.593      55.504
  H      -76.133      55.904      48.581
  H      -73.557      49.826      55.395
  P      -75.329      47.666      52.878
  C      -75.750      46.874      50.442
  O      -76.065      47.803      51.461
  O      -75.874      46.275      53.459
  O      -73.838      47.681      52.815
  H      -75.173      45.600      53.399
  H      -76.613      46.777      49.778
  H      -75.506      45.890      50.853
  H      -74.900      47.247      49.865
  H      -70.757      50.261      50.228
  H      -72.361      50.282      50.922
  H      -71.318      48.902      51.173

 3  4  5  6  7  8  9  10  11  12  13  24  27  28  29  30  32 0
 6-311+G(2d,p)
 ****
 34  35 0
 6-311+G(2d,p)
 ****
 1  2  14  15  16  17  18  19  20  21  22  23  25  26 0
 3-21G
 ****
 31  33  36  37  38  39  40  41  42  43  44  45  46 0
 3-21G
 ****


