%nproc=1
%NoSave
%Mem=1900MB
#P OB98/GEN NMR

erre ene a

0 1
  C       -5.856    -110.139    -145.663
  O       -7.111    -109.968    -145.027
  P       -8.403    -109.881    -145.980
  C       -8.587    -107.343    -145.397
  O       -8.546    -108.342    -146.403
  C       -7.865    -106.085    -145.891
  O       -6.559    -106.427    -146.397
  C       -8.583    -105.356    -147.020
  O       -9.611    -104.529    -146.502
  C       -7.435    -104.582    -147.657
  O       -7.150    -103.379    -146.917
  C       -6.276    -105.584    -147.549
  N       -4.083    -105.833    -152.097
  C       -4.205    -104.766    -151.224
  N       -3.615    -103.610    -151.604
  N       -4.841    -104.827    -150.086
  C       -5.392    -106.039    -149.846
  C       -5.354    -107.163    -150.635
  C       -4.603    -107.099    -151.868
  O       -4.385    -108.041    -152.626
  N       -6.049    -108.202    -150.068
  C       -6.476    -107.710    -148.922
  N       -6.087    -106.411    -148.727
  O       -9.614    -110.125    -144.970
  O       -8.410    -110.838    -147.132
  H       -7.910    -102.775    -146.982
  H       -9.916    -111.054    -145.008
  H       -3.568    -105.732    -152.953
  H       -7.050    -108.261    -148.190
  H       -5.318    -105.085    -147.353
  H       -7.664    -104.270    -148.680
  H       -3.128    -103.482    -152.477
  H       -8.991    -106.073    -147.742
  H       -3.694    -102.817    -150.979
  H       -7.725    -105.420    -145.030
  H       -8.088    -107.715    -144.499
  H       -9.631    -107.119    -145.156
  P      -11.125    -105.034    -146.679
  C      -11.881    -102.881    -147.918
  O      -11.722    -104.289    -147.962
  O      -11.884    -104.352    -145.447
  O      -11.287    -106.518    -146.666
  H      -12.573    -104.959    -145.114
  H      -11.778    -102.484    -148.929
  H      -11.136    -102.409    -147.273
  H      -12.881    -102.644    -147.546
  H       -5.084    -110.182    -144.923
  H       -5.674    -109.315    -146.321
  H       -5.862    -111.050    -146.225

 3  4  5  6  7  8  9  10  11  12  23  26  30  31 0
 6-311+G(2d,p)
 ****
 33  35  36  37  38 0
 6-311+G(2d,p)
 ****
 1  2  13  14  15  16  17  18  19  20  21  22  24  25 0
 3-21G
 ****
 27  28  29  32  34  39  40  41  42  43  44  45  46  47  48  49 0
 3-21G
 ****


