%nproc=1
%NoSave
%Mem=1900MB
#P OB98/GEN NMR

erre ene a

0 1
  C     -521.069    -370.189    -893.950
  O     -520.224    -369.072    -894.160
  P     -518.926    -368.913    -893.220
  C     -517.058    -369.891    -894.760
  O     -517.670    -368.728    -894.210
  C     -515.813    -369.531    -895.550
  O     -516.183    -368.830    -896.750
  C     -514.847    -368.605    -894.830
  O     -514.015    -369.309    -893.900
  C     -514.015    -368.067    -895.980
  O     -512.997    -369.021    -896.340
  C     -515.079    -367.936    -897.110
  N     -514.057    -363.319    -898.870
  C     -513.270    -364.439    -898.880
  N     -512.068    -364.360    -899.460
  N     -513.655    -365.586    -898.360
  C     -514.909    -365.564    -897.840
  C     -515.784    -364.474    -897.770
  C     -515.329    -363.211    -898.320
  O     -515.941    -362.144    -898.260
  N     -516.967    -364.830    -897.180
  C     -516.836    -366.133    -896.940
  N     -515.595    -366.600    -897.290
  O     -518.714    -370.401    -892.660
  O     -519.066    -367.917    -892.130
  H     -513.453    -369.872    -896.440
  H     -518.253    -370.389    -891.790
  H     -513.727    -362.466    -899.310
  H     -517.607    -366.756    -896.500
  H     -514.702    -368.304    -898.070
  H     -513.518    -367.114    -895.740
  H     -511.782    -363.533    -900.000
  H     -515.373    -367.787    -894.320
  H     -511.507    -365.184    -899.530
  H     -515.310    -370.486    -895.840
  H     -517.785    -370.389    -895.440
  H     -516.832    -370.574    -893.930
  P     -513.313    -368.459    -892.720
  C     -514.498    -369.409    -890.610
  O     -513.350    -369.417    -891.420
  O     -514.421    -367.328    -892.430
  O     -511.988    -367.878    -893.110
  H     -513.994    -366.522    -892.060
  H     -515.421    -369.312    -891.190
  H     -514.431    -368.595    -889.890
  H     -514.538    -370.359    -890.060
  H     -521.882    -370.157    -894.645
  H     -521.453    -370.163    -892.951
  H     -520.511    -371.090    -894.095

 3  4  5  6  7  8  9  10  11  12  23  26  30  31  33  0
 6-311+G(2d,p)
 ****
 35  36  37  38 0
 6-311+G(2d,p)
 ****
 1  2  13  14  15  16  17  18  19  20  21  22  24  25  27  28  29 0
 3-21G
 ****
 32  34  39  40  41  42  43  44  45  46  47  48  49 0
 3-21G
 ****


