%nproc=1
%NoSave
%Mem=1900MB
#P OB98/GEN NMR

erre ene a

0 1
  C      -93.605      97.226     432.556
  O      -93.510      98.628     432.322
  P      -92.158      99.364     432.782
  C      -92.085     100.704     430.556
  O      -92.137     100.754     431.978
  C      -92.130     102.107     429.964
  O      -93.452     102.674     430.152
  C      -91.172     103.098     430.609
  O      -89.850     102.966     430.095
  C      -91.791     104.429     430.191
  O      -91.386     104.751     428.839
  C      -93.301     104.116     430.232
  N      -94.786     108.199     432.840
  C      -94.153     108.110     431.616
  N      -93.902     109.280     430.990
  N      -93.794     106.982     431.064
  C      -94.143     105.894     431.789
  C      -94.773     105.849     433.017
  C      -95.125     107.106     433.635
  O      -95.625     107.248     434.755
  N      -94.982     104.552     433.419
  C      -94.502     103.816     432.434
  N      -93.965     104.583     431.438
  O      -91.011      98.504     432.065
  O      -91.951      99.445     434.255
  H      -90.422     104.946     428.875
  H      -90.172      98.589     432.559
  H      -95.063     109.095     433.214
  H      -94.533     102.737     432.410
  H      -93.813     104.539     429.357
  H      -91.484     105.260     430.828
  H      -94.267     110.167     431.295
  H      -91.189     103.012     431.702
  H      -93.469     109.238     430.066
  H      -91.950     102.034     428.880
  H      -92.947     100.132     430.187
  H      -91.169     100.187     430.247
  P      -88.811     104.138     430.474
  C      -86.699     102.621     430.470
  O      -87.422     103.674     429.843
  O      -88.604     103.946     432.047
  O      -89.282     105.509     430.124
  H      -88.349     104.793     432.458
  H      -87.376     101.857     430.866
  H      -86.089     103.027     431.281
  H      -86.040     102.145     429.730
  H      -94.550      96.869     432.203
  H      -93.519      97.033     433.605
  H      -92.817      96.723     432.035

 3  4  5  6  7  8  9  10  11  12  23  26  30  31  33  0
 6-311+G(2d,p)
 ****
 35  36  37  38 0
 6-311+G(2d,p)
 ****
 1  2  13  14  15  16  17  18  19  20  21  22  24  25  27  28  29 0
 3-21G
 ****
 32  34  39  40  41  42  43  44  45  46  47  48  49 0
 3-21G
 ****


