%nproc=1
%NoSave
%Mem=1900MB
#P OB98/GEN NMR

erre ene a

0 1
  C      -66.736    -209.126      37.050
  O      -65.929    -208.433      36.120
  H      -66.525    -208.738      38.050
  H      -66.507    -210.193      37.033
  H      -67.796    -208.966      36.828
  P      -65.997    -208.857      34.575
  C      -65.084    -210.807      33.151
  O      -65.340    -210.317      34.464
  C      -64.575    -212.252      33.217
  O      -63.344    -212.255      33.979
  C      -65.572    -213.195      33.910
  O      -65.879    -214.350      33.129
  C      -64.950    -213.409      35.288
  O      -65.311    -214.624      35.907
  C      -63.451    -213.241      35.023
  N      -62.687    -212.834      36.201
  C      -62.186    -213.845      37.021
  O      -62.328    -215.047      36.822
  N      -61.482    -213.420      38.120
  C      -61.253    -212.124      38.479
  O      -60.613    -211.806      39.474
  C      -61.832    -211.104      37.589
  C      -62.512    -211.496      36.512
  O      -65.457    -207.855      33.607
  O      -67.552    -209.142      34.317
  H      -65.001    -214.576      36.838
  H      -67.939    -208.403      33.807
  H      -61.103    -214.139      38.712
  H      -61.678    -210.064      37.852
  H      -62.953    -210.771      35.834
  H      -63.021    -214.174      34.658
  H      -65.291    -212.596      35.946
  H      -66.547    -212.710      34.029
  H      -64.336    -212.590      32.201
  H      -64.328    -210.159      32.692
  H      -66.003    -210.763      32.555
  P      -67.128    -214.486      32.144
  C      -69.663    -215.150      32.381
  O      -68.421    -214.857      33.010
  O      -66.898    -215.284      30.904
  O      -67.424    -212.964      31.695
  H      -67.775    -213.013      30.782
  H      -70.397    -215.372      33.127
  H      -69.545    -215.995      31.735
  H      -69.981    -214.304      31.808

 6  7  8  9  10  11  12  13  14  15  16  26  31  32  33  34  35 0
 6-311+G(2d,p)
 ****
 36  37 0
 6-311+G(2d,p)
 ****
 1  2  3  4  5  17  18  19  20  21  22  23  24  25 0
 3-21G
 ****
 27  28  29  30  38  39  40  41  42  43  44  45 0
 3-21G
 ****


