%nproc=1
%NoSave
%Mem=1900MB
#P OB98/GEN NMR

erre ene a

0 1
  C      199.339     -40.789    -288.469
  O      198.125     -41.514    -288.508
  H      200.013     -41.186    -289.235
  H      199.811     -40.905    -287.489
  H      199.159     -39.728    -288.672
  P      196.920     -40.934    -287.626
  C      197.911     -41.952    -285.417
  O      197.460     -40.796    -286.116
  C      197.742     -41.754    -283.914
  O      198.592     -40.691    -283.438
  C      196.348     -41.319    -283.495
  O      195.400     -42.360    -283.590
  C      196.615     -40.866    -282.064
  O      196.585     -41.966    -281.146
  C      198.038     -40.272    -282.165
  N      198.036     -38.831    -282.009
  C      198.691     -38.349    -280.869
  O      199.238     -39.135    -280.090
  N      198.679     -37.002    -280.621
  C      198.044     -36.204    -281.424
  N      198.042     -34.884    -281.103
  C      197.340     -36.670    -282.638
  C      197.375     -37.982    -282.870
  O      195.923     -42.182    -287.544
  O      196.298     -39.690    -288.157
  H      197.427     -42.454    -281.272
  H      196.356     -43.015    -287.288
  H      196.836     -35.963    -283.280
  H      196.886     -38.411    -283.734
  H      198.690     -40.702    -281.389
  H      195.860     -40.148    -281.724
  H      196.034     -40.441    -284.075
  H      198.038     -42.685    -283.412
  H      198.487     -34.615    -280.234
  H      198.960     -42.161    -285.659
  H      197.516     -34.185    -281.608
  H      197.317     -42.800    -285.761
  P      193.923     -42.094    -284.152
  C      192.525     -42.166    -281.986
  O      193.117     -41.339    -282.981
  O      193.227     -43.287    -284.705
  O      194.147     -40.915    -285.213
  H      194.524     -40.096    -284.844
  H      192.021     -41.554    -281.267
  H      193.287     -42.737    -281.497
  H      191.822     -42.829    -282.445

 6  7  8  9  10  11  12  13  14  15  16  26  30  31  32  33  35 0
 6-311+G(2d,p)
 ****
 37  38 0
 6-311+G(2d,p)
 ****
 1  2  3  4  5  17  18  19  20  21  22  23  24  25 0
 3-21G
 ****
 27  28  29  34  36  39  40  41  42  43  44  45  46 0
 3-21G
 ****


