%nproc=1
%NoSave
%Mem=1900MB
#P OB98/GEN NMR

erre ene a

0 1
  C      -27.107     100.801    -363.642
  O      -27.335      99.454    -364.002
  H      -27.982     101.393    -363.922
  H      -26.232     101.192    -364.169
  H      -26.956     100.879    -362.562
  P      -26.113      98.435    -363.776
  C      -26.155      95.827    -363.743
  O      -26.844      97.037    -363.464
  C      -26.879      94.652    -363.096
  O      -26.965      94.837    -361.662
  C      -28.320      94.461    -363.561
  O      -28.422      93.842    -364.834
  C      -28.835      93.560    -362.452
  O      -28.321      92.226    -362.637
  C      -28.210      94.233    -361.213
  N      -29.083      95.247    -360.611
  C      -30.221      94.777    -359.940
  O      -30.458      93.574    -359.874
  N      -31.087      95.692    -359.391
  C      -30.830      96.962    -359.478
  N      -31.726      97.819    -358.916
  C      -29.641      97.497    -360.164
  C      -28.819      96.597    -360.701
  O      -25.539      98.858    -362.342
  O      -25.092      98.383    -364.861
  H      -28.687      91.902    -363.480
  H      -24.871      98.196    -362.037
  H      -29.478      98.564    -360.223
  H      -27.922      96.917    -361.218
  H      -27.957      93.491    -360.446
  H      -29.923      93.481    -362.429
  H      -28.880      95.402    -363.539
  H      -26.280      93.751    -363.272
  H      -32.562      97.422    -358.507
  H      -25.138      95.909    -363.345
  H      -31.695      98.818    -359.062
  H      -26.102      95.666    -364.826
  P      -29.853      93.890    -365.563
  C      -30.659      94.088    -368.031
  O      -29.574      94.171    -367.115
  O      -30.480      95.264    -365.044
  O      -30.743      92.721    -365.276
  H      -31.450      95.191    -364.949
  H      -30.309      94.301    -369.019
  H      -31.411      94.798    -367.758
  H      -31.073      93.102    -368.005

 6  7  8  9  10  11  12  13  14  15  16  26  30  31  32  33  35 0
 6-311+G(2d,p)
 ****
 37  38 0
 6-311+G(2d,p)
 ****
 1  2  3  4  5  17  18  19  20  21  22  23  24  25 0
 3-21G
 ****
 27  28  29  34  36  39  40  41  42  43  44  45  46 0
 3-21G
 ****


