%nproc=1
%NoSave
%Mem=1900MB
#P OB98/GEN NMR

erre ene a

0 1
  C      167.796     106.951    -100.403
  O      169.145     107.004    -100.812
  H      167.557     107.870     -99.861
  H      167.642     106.102     -99.733
  H      167.133     106.868    -101.268
  P      169.676     105.826    -101.763
  C      168.243     104.995    -103.763
  O      169.000     106.058    -103.202
  C      167.953     105.271    -105.240
  O      167.188     106.499    -105.344
  C      169.212     105.426    -106.096
  O      168.978     104.821    -107.369
  C      169.347     106.928    -106.267
  O      170.072     107.285    -107.443
  C      167.881     107.375    -106.257
  N      167.750     108.777    -105.866
  C      166.602     109.446    -106.305
  O      165.768     108.856    -106.992
  N      166.454     110.774    -106.006
  C      167.411     111.406    -105.397
  N      167.218     112.733    -105.157
  C      168.669     110.758    -104.977
  C      168.766     109.454    -105.231
  O      168.919     104.530    -101.208
  O      171.156     105.649    -101.797
  H      170.100     108.265    -107.504
  H      169.462     103.728    -101.320
  H      169.445     111.333    -104.495
  H      169.653     108.895    -104.967
  H      167.429     107.242    -107.249
  H      169.879     107.350    -105.405
  H      170.103     104.982    -105.640
  H      167.318     104.465    -105.624
  H      166.350     113.143    -105.479
  H      167.294     104.911    -103.224
  H      167.911     113.331    -104.734
  H      168.797     104.056    -103.651
  P      169.881     103.549    -107.739
  C      169.512     100.980    -107.631
  O      168.928     102.263    -107.817
  O      170.742     103.309    -106.413
  O      170.754     103.762    -108.934
  H      171.671     103.562    -106.567
  H      168.755     100.228    -107.711
  H      169.963     100.930    -106.662
  H      170.258     100.816    -108.380

 6  7  8  9  10  11  12  13  14  15  16  26  30  31  32  33  35 0
 6-311+G(2d,p)
 ****
 37  38 0
 6-311+G(2d,p)
 ****
 1  2  3  4  5  17  18  19  20  21  22  23  24  25 0
 3-21G
 ****
 27  28  29  34  36  39  40  41  42  43  44  45  46 0
 3-21G
 ****


