%nproc=1
%NoSave
%Mem=1900MB
#P OB98/GEN NMR

erre ene a

0 1
  C     -419.177     186.687    -154.357
  O     -418.917     188.073    -154.283
  H     -418.886     186.218    -153.409
  H     -418.600     186.229    -155.168
  H     -420.245     186.510    -154.522
  P     -419.183     188.918    -155.625
  C     -417.570     189.798    -157.476
  O     -417.714     189.109    -156.248
  C     -416.202     190.478    -157.531
  O     -416.097     191.489    -156.500
  C     -415.027     189.536    -157.301
  O     -414.691     188.772    -158.446
  C     -413.939     190.539    -156.959
  O     -413.480     191.187    -158.159
  C     -414.718     191.526    -156.057
  N     -414.622     191.199    -154.629
  C     -413.444     191.553    -153.970
  O     -412.527     192.108    -154.583
  N     -413.306     191.243    -152.632
  C     -414.269     190.638    -152.003
  N     -414.074     190.346    -150.695
  C     -415.540     190.260    -152.653
  C     -415.648     190.567    -153.940
  O     -419.516     190.391    -155.079
  O     -420.210     188.359    -156.548
  H     -413.025     190.500    -158.690
  H     -419.577     191.025    -155.836
  H     -416.317     189.755    -152.094
  H     -416.557     190.315    -154.496
  H     -414.351     192.551    -156.191
  H     -413.064     190.081    -156.484
  H     -415.195     188.892    -156.431
  H     -416.120     190.999    -158.500
  H     -413.176     190.561    -150.282
  H     -418.361     190.551    -157.549
  H     -414.683     189.724    -150.176
  H     -417.660     189.103    -158.315
  P     -413.848     187.427    -158.224
  C     -411.316     186.821    -158.078
  O     -412.295     187.831    -158.314
  O     -414.075     186.626    -159.596
  O     -414.244     186.617    -157.029
  H     -414.180     185.669    -159.424
  H     -410.338     187.243    -158.174
  H     -411.436     186.034    -158.793
  H     -411.440     186.428    -157.091

 6  7  8  9  10  11  12  13  14  15  16  26  30  31  32  33  35 0
 6-311+G(2d,p)
 ****
 37  38 0
 6-311+G(2d,p)
 ****
 1  2  3  4  5  17  18  19  20  21  22  23  24  25 0
 3-21G
 ****
 27  28  29  34  36  39  40  41  42  43  44  45  46 0
 3-21G
 ****


