%nproc=1
%NoSave
%Mem=1900MB
#P OB98/GEN NMR

erre ene a

0 1
  C     -315.340     127.713    -260.644
  O     -316.495     128.463    -260.967
  H     -314.467     128.229    -261.050
  H     -315.394     126.714    -261.082
  H     -315.226     127.639    -259.558
  P     -317.928     127.886    -260.540
  C     -317.909     125.997    -262.297
  O     -318.552     127.185    -261.843
  C     -317.972     125.917    -263.832
  O     -319.363     125.797    -264.216
  C     -317.394     127.174    -264.509
  O     -316.393     126.879    -265.481
  C     -318.633     127.927    -264.977
  O     -318.426     128.778    -266.085
  C     -319.651     126.800    -265.210
  N     -321.045     127.232    -265.122
  C     -321.495     128.136    -266.084
  O     -320.820     128.576    -267.018
  N     -322.801     128.531    -265.955
  C     -323.673     128.127    -264.986
  O     -324.836     128.519    -264.927
  C     -323.131     127.196    -263.987
  C     -321.864     126.797    -264.095
  O     -318.838     128.856    -259.859
  O     -317.580     126.643    -259.590
  H     -319.301     129.083    -266.391
  H     -317.710     126.896    -258.656
  H     -323.142     129.178    -266.653
  H     -323.794     126.866    -263.195
  H     -321.432     126.106    -263.380
  H     -319.504     126.353    -266.195
  H     -318.990     128.558    -264.145
  H     -316.857     127.794    -263.777
  H     -317.457     125.007    -264.161
  H     -318.436     125.142    -261.851
  H     -316.868     125.987    -261.968
  P     -314.922     126.356    -265.144
  C     -313.959     128.786    -265.353
  O     -313.870     127.415    -265.716
  O     -314.668     124.917    -265.442
  O     -314.819     126.549    -263.541
  H     -314.241     125.825    -263.209
  H     -313.174     129.333    -265.832
  H     -313.864     128.881    -264.291
  H     -314.906     129.176    -265.662

 6  7  8  9  10  11  12  13  14  15  16  26  31  32  33  34  35 0
 6-311+G(2d,p)
 ****
 36  37 0
 6-311+G(2d,p)
 ****
 1  2  3  4  5  17  18  19  20  21  22  23  24  25 0
 3-21G
 ****
 27  28  29  30  38  39  40  41  42  43  44  45 0
 3-21G
 ****


