%nproc=1
%NoSave
%Mem=1900MB
#P OB98/GEN NMR

erre ene a

0 1
  C     -407.346     507.289     -73.513
  O     -406.111     506.750     -73.931
  H     -408.151     506.702     -73.971
  H     -407.444     508.323     -73.848
  H     -407.448     507.231     -72.425
  P     -404.745     507.441     -73.439
  C     -405.306     506.751     -71.029
  O     -405.000     507.837     -71.899
  C     -404.206     506.543     -69.987
  O     -404.098     507.736     -69.154
  C     -404.442     505.345     -69.059
  O     -403.244     504.571     -68.948
  C     -404.756     505.990     -67.716
  O     -404.478     505.135     -66.610
  C     -403.906     507.266     -67.803
  N     -404.301     508.256     -66.810
  C     -403.407     508.462     -65.755
  O     -402.345     507.834     -65.703
  N     -403.750     509.342     -64.755
  C     -404.915     509.914     -64.782
  N     -405.207     510.751     -63.744
  C     -405.902     509.703     -65.864
  C     -405.533     508.872     -66.837
  O     -404.266     508.557     -74.308
  O     -403.693     506.237     -73.327
  H     -405.006     504.310     -66.705
  H     -402.781     506.608     -73.380
  H     -406.858     510.207     -65.832
  H     -406.189     508.653     -67.668
  H     -402.842     507.035     -67.665
  H     -405.823     506.251     -67.677
  H     -405.256     504.698     -69.390
  H     -403.244     506.453     -70.517
  H     -404.510     510.862     -63.024
  H     -405.436     505.843     -71.635
  H     -406.090     511.237     -63.649
  H     -406.245     506.979     -70.516
  P     -403.403     502.983     -69.166
  C     -404.054     502.940     -71.680
  O     -404.480     502.747     -70.339
  O     -404.171     502.504     -67.834
  O     -402.104     502.274     -69.329
  H     -403.563     501.984     -67.273
  H     -404.870     502.749     -72.345
  H     -403.251     502.268     -71.899
  H     -403.720     503.949     -71.806

 6  7  8  9  10  11  12  13  14  15  16  26  30  31  32  33  35 0
 6-311+G(2d,p)
 ****
 37  38 0
 6-311+G(2d,p)
 ****
 1  2  3  4  5  17  18  19  20  21  22  23  24  25 0
 3-21G
 ****
 27  28  29  34  36  39  40  41  42  43  44  45  46 0
 3-21G
 ****


