%nproc=1
%NoSave
%Mem=1900MB
#P OB98/GEN NMR

erre ene a

0 1
  C     -687.005     453.114     453.414
  O     -685.771     453.814     453.417
  P     -685.171     454.403     452.049
  C     -683.046     455.797     451.618
  O     -684.141     455.552     452.501
  C     -681.753     456.015     452.413
  O     -681.897     457.132     453.324
  C     -681.334     454.831     453.273
  O     -680.754     453.811     452.481
  C     -680.384     455.492     454.249
  O     -679.077     455.635     453.688
  C     -681.043     456.882     454.459
  N     -681.779     456.968     455.718
  C     -681.004     457.183     456.859
  O     -679.778     457.269     456.774
  N     -681.635     457.276     458.082
  C     -682.920     457.109     458.150
  N     -683.490     457.199     459.392
  C     -683.771     456.845     456.971
  C     -683.131     456.784     455.807
  O     -686.178     454.805     451.024
  O     -684.198     453.232     451.558
  H     -679.155     456.322     452.987
  H     -684.708     452.465     451.183
  H     -684.838     456.721     457.073
  H     -683.683     456.587     454.879
  H     -680.280     457.668     454.461
  H     -680.280     454.918     455.182
  H     -682.210     454.440     453.828
  H     -680.952     456.257     451.698
  H     -682.868     457.352     460.171
  H     -683.263     456.698     451.040
  H     -684.474     457.054     459.556
  H     -682.943     454.956     450.929
  P     -680.270     452.445     453.156
  C     -679.539     450.121     452.325
  O     -680.259     451.316     452.014
  O     -680.983     452.066     454.421
  O     -678.712     452.698     453.438
  H     -678.500     452.372     454.339
  H     -679.872     449.335     451.636
  H     -679.716     449.811     453.343
  H     -678.477     450.302     452.176
  H     -687.239     452.800     454.410
  H     -686.927     452.257     452.779
  H     -687.779     453.757     453.051

 3  4  5  6  7  8  9  10  11  12  13  23  27  28  29  30  32 0
 6-311+G(2d,p)
 ****
 34  35 0
 6-311+G(2d,p)
 ****
 1  2  14  15  16  17  18  19  20  21  22  24  25  26 0
 3-21G
 ****
 31  33  36  37  38  39  40  41  42  43  44  45  46 0
 3-21G
 ****


