%nproc=1
%NoSave
%Mem=1900MB
#P OB98/GEN NMR

erre ene a

0 1
  C      148.472     192.292    -258.185
  O      148.187     193.594    -257.714
  H      148.696     191.652    -257.328
  H      149.342     192.312    -258.842
  H      147.613     191.873    -258.716
  P      147.627     194.683    -258.746
  C      149.845     195.999    -258.809
  O      148.457     196.031    -258.495
  C      150.423     197.410    -258.753
  O      149.738     198.265    -259.692
  C      150.281     198.085    -257.393
  O      151.226     197.573    -256.472
  C      150.486     199.544    -257.779
  O      151.885     199.840    -257.931
  C      149.760     199.604    -259.145
  N      148.409     200.156    -259.052
  C      148.312     201.520    -258.799
  O      149.291     202.240    -258.614
  N      147.039     202.027    -258.739
  C      145.884     201.305    -258.828
  O      144.767     201.802    -258.717
  C      146.049     199.864    -259.065
  C      147.282     199.362    -259.165
  O      146.145     194.857    -258.768
  O      148.182     194.179    -260.161
  H      152.200     199.308    -258.686
  H      147.475     193.712    -260.645
  H      146.947     203.010    -258.543
  H      145.154     199.258    -259.132
  H      147.424     198.300    -259.331
  H      150.333     200.221    -259.851
  H      150.096     200.237    -257.035
  H      149.260     197.964    -257.015
  H      151.479     197.358    -259.053
  H      149.967     195.593    -259.820
  H      150.354     195.341    -258.097
  P      150.792     197.208    -254.978
  C      152.984     198.211    -254.112
  O      152.134     197.072    -254.102
  O      149.850     196.055    -254.851
  O      150.134     198.554    -254.420
  H      149.163     198.455    -254.378
  H      153.843     198.020    -253.503
  H      152.453     199.056    -253.725
  H      153.296     198.415    -255.115

 6  7  8  9  10  11  12  13  14  15  16  26  31  32  33  34  35 0
 6-311+G(2d,p)
 ****
 36  37 0
 6-311+G(2d,p)
 ****
 1  2  3  4  5  17  18  19  20  21  22  23  24  25 0
 3-21G
 ****
 27  28  29  30  38  39  40  41  42  43  44  45 0
 3-21G
 ****


