%nproc=1
%NoSave
%Mem=1900MB
#P OB98/GEN NMR

erre ene a

0 1
  C      124.433    -290.626     455.424
  O      125.667    -291.051     456.015
  P      127.003    -290.702     455.197
  C      127.260    -293.186     454.480
  O      127.871    -292.048     455.078
  C      128.321    -294.113     453.867
  O      129.018    -293.496     452.760
  C      129.411    -294.518     454.855
  O      128.930    -295.569     455.692
  C      130.528    -294.967     453.926
  O      130.350    -296.331     453.499
  C      130.372    -293.999     452.735
  N      134.117    -291.741     450.157
  C      133.487    -292.952     449.932
  N      133.905    -293.658     448.860
  N      132.544    -293.435     450.698
  C      132.228    -292.628     451.739
  C      132.756    -291.392     452.045
  C      133.804    -290.872     451.199
  O      134.369    -289.792     451.342
  N      132.141    -290.842     453.147
  C      131.335    -291.803     453.572
  N      131.304    -292.878     452.714
  O      127.830    -289.785     456.216
  O      126.739    -289.986     453.907
  H      131.177    -296.647     453.093
  H      127.858    -288.868     455.894
  H      134.840    -291.417     449.539
  H      130.734    -291.757     454.466
  H      130.505    -294.526     451.774
  H      131.505    -294.924     454.416
  H      134.631    -293.346     448.223
  H      129.730    -293.654     455.451
  H      133.456    -294.542     448.663
  H      127.803    -295.004     453.494
  H      126.558    -292.869     453.702
  H      126.681    -293.711     455.236
  P      128.472    -295.193     457.177
  C      130.944    -294.778     457.865
  O      129.724    -295.435     458.153
  O      127.459    -296.371     457.554
  O      127.817    -293.853     457.308
  H      126.659    -295.997     457.989
  H      131.476    -294.603     458.801
  H      130.778    -293.813     457.367
  H      131.554    -295.418     457.219
  H      123.618    -290.912     456.055
  H      124.320    -291.086     454.465
  H      124.440    -289.562     455.311

 3  4  5  6  7  8  9  10  11  12  23  26  30  31 0
 6-311+G(2d,p)
 ****
 33  35  36  37  38 0
 6-311+G(2d,p)
 ****
 1  2  13  14  15  16  17  18  19  20  21  22  24  25 0
 3-21G
 ****
 27  28  29  32  34  39  40  41  42  43  44  45  46  47  48  49 0
 3-21G
 ****


