%nproc=1
%NoSave
%Mem=1900MB
#P OB98/GEN NMR

erre ene a

0 1
  C      103.580      14.289     -29.090
  O      104.460      14.819     -30.061
  H      103.624      13.199     -29.135
  H      102.556      14.612     -29.297
  H      103.878      14.615     -28.090
  P      104.552      16.418     -30.142
  C      102.714      16.527     -31.988
  O      103.128      16.917     -30.687
  C      101.235      16.872     -32.203
  O      101.106      18.321     -32.316
  C      100.636      16.274     -33.486
  O       99.232      16.067     -33.264
  C      100.835      17.409     -34.478
  O      100.068      17.202     -35.643
  C      100.468      18.589     -33.584
  N       99.194      22.566     -36.534
  C       98.504      21.467     -36.161
  N       98.905      20.457     -35.363
  C      100.156      20.670     -34.917
  C      100.978      21.747     -35.205
  C      100.452      22.729     -36.062
  N      101.155      23.846     -36.451
  N      102.198      21.613     -34.566
  C      102.109      20.477     -33.904
  N      100.897      19.870     -34.093
  O      105.541      16.668     -31.375
  O      105.023      17.099     -28.901
  H       99.177      16.857     -35.415
  H      106.451      16.796     -31.050
  H       97.495      21.387     -36.558
  H      102.887      20.046     -33.285
  H       99.387      18.648     -33.408
  H      101.879      17.470     -34.797
  H      101.102      15.330     -33.783
  H      100.665      16.572     -31.317
  H      102.862      15.446     -32.090
  H      103.321      17.046     -32.735
  H      100.711      24.494     -37.081
  H      102.099      23.971     -36.121
  P       98.724      14.630     -32.753
  C       98.021      13.784     -35.128
  O       98.819      13.588     -33.968
  O       97.140      14.860     -32.637
  O       99.286      14.170     -31.449
  H       96.773      14.268     -31.956
  H       98.213      12.999     -35.830
  H       98.263      14.727     -35.572
  H       96.986      13.774     -34.855

 6  7  8  9  10  11  12  13  14  15  25  28  32  33  34  35 0
 6-311+G(2d,p)
 ****
 36  37  40 0
 6-311+G(2d,p)
 ****
 1  2  3  4  5  16  17  18  19  20  21  22  23  24 0
 3-21G
 ****
 26  27  29  30  31  38  39 41  42  43  44  45  46  47  48 0
 3-21G
 ****


