%nproc=1
%NoSave
%Mem=1900MB
#P OB98/GEN NMR

erre ene a

0 1
  C      358.243    1028.936     542.505
  O      359.467    1028.206     542.720
  P      360.800    1028.711     542.007
  C      360.522    1027.881     539.550
  O      360.537    1028.981     540.443
  C      360.112    1028.325     538.120
  O      361.130    1029.231     537.567
  C      359.951    1027.164     537.113
  O      358.930    1027.548     536.189
  C      361.304    1027.150     536.408
  O      361.276    1026.497     535.157
  C      361.580    1028.668     536.314
  N      362.990    1028.994     536.064
  C      363.490    1028.726     534.798
  O      362.863    1028.163     533.900
  N      364.802    1029.113     534.596
  C      365.632    1029.675     535.511
  O      366.798    1029.961     535.282
  C      365.057    1029.908     536.845
  C      363.772    1029.565     537.051
  O      361.687    1027.373     541.972
  O      361.542    1029.799     542.708
  H      362.061    1026.802     534.648
  H      362.593    1027.566     542.247
  H      365.182    1028.939     533.688
  H      365.676    1030.369     537.606
  H      363.310    1029.749     538.025
  H      360.960    1029.097     535.532
  H      362.041    1026.651     537.053
  H      359.710    1026.199     537.603
  H      359.185    1028.903     538.193
  H      359.817    1027.126     539.894
  H      361.519    1027.422     539.517
  P      357.623    1026.609     536.068
  C      358.556    1025.073     534.148
  O      358.114    1025.193     535.501
  O      356.886    1027.266     534.813
  O      356.757    1026.571     537.299
  H      357.508    1027.485     534.078
  H      359.148    1025.934     533.860
  H      357.682    1025.000     533.503
  H      359.142    1024.164     534.056
  H      357.449    1028.470     543.050
  H      358.007    1028.937     541.461
  H      358.364    1029.944     542.844

 3  4  5  6  7  8  9  10  11  12  13  23  28  29  30  31  32 0
 6-311+G(2d,p)
 ****
 33  34 0
 6-311+G(2d,p)
 ****
 1  2  14  15  16  17  18  19  20  21  22  24  25  26 0
 3-21G
 ****
 27  35  36  37  38  39  40  41  42  43  44  45 0
 3-21G
 ****


