%nproc=1
%NoSave
%Mem=1900MB
#P OB98/GEN NMR

erre ene a

0 1
  C     -284.691     -11.998     559.854
  O     -283.666     -12.510     560.715
  P     -282.479     -11.506     561.108
  C     -281.126     -11.844     558.917
  O     -281.833     -10.930     559.750
  C     -281.026     -11.321     557.475
  O     -280.036     -10.254     557.371
  C     -280.624     -12.398     556.454
  O     -281.283     -12.090     555.225
  C     -279.133     -12.164     556.282
  O     -278.647     -12.747     555.074
  C     -279.088     -10.642     556.362
  N     -275.173      -7.786     554.707
  C     -276.374      -8.088     554.156
  N     -277.356      -8.877     554.659
  C     -277.009      -9.341     555.871
  C     -275.830      -9.131     556.550
  C     -274.875      -8.310     555.920
  N     -273.636      -8.020     556.464
  N     -275.825      -9.811     557.758
  C     -276.995     -10.423     557.791
  N     -277.754     -10.151     556.688
  O     -281.342     -12.489     561.673
  O     -282.865     -10.475     562.120
  H     -279.099     -12.309     554.331
  H     -281.277     -12.392     562.646
  H     -276.566      -7.643     553.186
  H     -277.331     -11.090     558.578
  H     -279.375     -10.166     555.412
  H     -278.587     -12.621     557.129
  H     -280.860     -13.423     556.754
  H     -281.989     -10.891     557.190
  H     -281.633     -12.815     558.906
  H     -273.005      -7.455     555.934
  H     -273.381      -8.442     557.348
  H     -280.131     -12.024     559.344
  P     -282.618     -12.916     554.893
  C     -281.770     -15.275     554.203
  O     -282.290     -14.449     555.234
  O     -282.695     -12.885     553.292
  O     -283.849     -12.356     555.527
  H     -283.623     -12.982     552.997
  H     -280.987     -15.921     554.622
  H     -281.331     -14.693     553.382
  H     -282.572     -15.903     553.801
  H     -285.417     -12.762     559.670
  H     -284.256     -11.689     558.927
  H     -285.165     -11.161     560.322

 3  4  5  6  7  8  9  10  11  12  22  25  29  30  31  32 0
 6-311+G(2d,p)
 ****
 33  36  37 0
 6-311+G(2d,p)
 ****
 1  2  13  14  15  16  17  18  19  20  21  23  24  26 0
 3-21G
 ****
 27  28  34  35  38  39  40  41  42  43  44  45  46  47  48 0
 3-21G
 ****


