%nproc=1
%NoSave
%Mem=1900MB
#P OB98/GEN NMR

erre ene a

0 1
  C      -28.729    -515.990    -129.544
  O      -27.498    -515.380    -129.896
  H      -29.530    -515.275    -129.720
  H      -28.728    -516.271    -128.496
  H      -28.905    -516.879    -130.164
  P      -26.183    -516.299    -129.821
  C      -25.808    -515.799    -132.355
  O      -25.892    -516.779    -131.336
  C      -25.954    -516.460    -133.728
  O      -24.794    -517.317    -133.946
  C      -27.209    -517.341    -133.843
  O      -27.732    -517.227    -135.153
  C      -26.673    -518.753    -133.620
  O      -27.493    -519.768    -134.171
  C      -25.292    -518.643    -134.285
  N      -24.372    -519.673    -133.798
  C      -24.740    -521.001    -133.993
  O      -25.753    -521.363    -134.601
  N      -23.906    -521.940    -133.460
  C      -22.761    -521.692    -132.748
  O      -22.054    -522.568    -132.287
  C      -22.418    -520.272    -132.585
  C      -23.229    -519.347    -133.096
  O      -26.701    -517.632    -129.100
  O      -25.011    -515.697    -129.121
  H      -26.606    -517.566    -128.146
  H      -27.034    -520.631    -134.031
  H      -24.160    -522.906    -133.590
  H      -21.528    -520.033    -132.006
  H      -23.017    -518.283    -132.974
  H      -25.380    -518.697    -135.368
  H      -26.569    -518.952    -132.550
  H      -27.978    -517.085    -133.111
  H      -25.935    -515.690    -134.490
  H      -24.835    -515.293    -132.284
  H      -26.604    -515.056    -132.204
  P      -28.642    -515.934    -135.506
  C      -27.641    -515.411    -137.865
  O      -27.739    -515.042    -136.493
  O      -28.572    -515.154    -134.112
  O      -30.001    -516.291    -135.999
  H      -27.714    -515.223    -133.650
  H      -27.007    -514.717    -138.376
  H      -28.615    -515.398    -138.308
  H      -27.228    -516.395    -137.941

 6  7  8  9  10  11  12  13  14  15  16  27  31  32  33  34  35 0
 6-311+G(2d,p)
 ****
 36  37 0
 6-311+G(2d,p)
 ****
 1  2  3  4  5  17  18  19  20  21  22  23  24  25 0
 3-21G
 ****
 26  28  29  30  38  39  40  41  42  43  44  45 0
 3-21G
 ****


