%nproc=1
%NoSave
%Mem=1900MB
#P OB98/GEN NMR

erre ene a

0 1
  C     -358.381    -124.850    -725.674
  O     -358.982    -125.880    -726.438
  H     -357.296    -124.935    -725.768
  H     -358.657    -124.958    -724.623
  H     -358.696    -123.873    -726.046
  P     -360.591    -125.927    -726.452
  C     -360.532    -128.164    -727.784
  O     -361.000    -127.464    -726.633
  C     -360.612    -129.669    -727.539
  O     -359.449    -130.104    -726.782
  C     -361.819    -130.100    -726.716
  O     -363.008    -130.143    -727.481
  C     -361.366    -131.459    -726.218
  O     -361.594    -132.479    -727.191
  C     -359.854    -131.261    -726.008
  N     -359.740    -133.464    -721.405
  C     -360.036    -133.952    -722.629
  N     -360.030    -133.293    -723.805
  C     -359.639    -132.023    -723.645
  C     -359.303    -131.388    -722.456
  C     -359.352    -132.164    -721.284
  N     -359.072    -131.675    -720.041
  N     -358.997    -130.064    -722.686
  C     -359.130    -129.897    -723.981
  N     -359.515    -131.054    -724.606
  O     -360.953    -125.266    -727.869
  O     -361.251    -125.214    -725.318
  H     -362.567    -132.577    -727.264
  H     -361.210    -124.335    -727.735
  H     -360.336    -134.986    -722.665
  H     -358.973    -128.964    -724.526
  H     -359.269    -132.111    -726.367
  H     -361.900    -131.738    -725.304
  H     -361.939    -129.423    -725.848
  H     -360.599    -130.191    -728.510
  H     -359.491    -127.886    -727.978
  H     -361.140    -127.876    -728.646
  H     -359.203    -132.273    -719.240
  H     -358.905    -130.684    -719.936
  P     -364.401    -130.230    -726.686
  C     -365.717    -131.567    -728.503
  O     -365.158    -131.552    -727.201
  O     -365.275    -129.028    -727.305
  O     -364.276    -130.124    -725.205
  H     -365.838    -128.642    -726.613
  H     -366.179    -132.515    -728.682
  H     -364.944    -131.405    -729.225
  H     -366.450    -130.792    -728.585

 6  7  8  9  10  11  12  13  14  15  25  28  32  33  34  35 0
 6-311+G(2d,p)
 ****
 36  37  40 0
 6-311+G(2d,p)
 ****
 1  2  3  4  5  16  17  18  19  20  21  22  23  24 0
 3-21G
 ****
 26  27  29  30  31  38  39 41  42  43  44  45  46  47  48 0
 3-21G
 ****


