%nproc=1
%NoSave
%Mem=1900MB
#P OB98/GEN NMR

erre ene a

0 1
  C      -33.656     -60.144    -339.029
  O      -33.156     -61.454    -338.856
  H      -32.814     -59.448    -339.058
  H      -34.309     -59.871    -338.196
  H      -34.204     -60.074    -339.972
  P      -34.237     -62.625    -338.682
  C      -32.421     -64.437    -338.269
  O      -33.560     -63.753    -337.765
  C      -31.618     -65.016    -337.107
  O      -30.831     -63.970    -336.486
  C      -32.474     -65.593    -335.989
  O      -32.971     -66.886    -336.290
  C      -31.478     -65.608    -334.842
  O      -30.659     -66.785    -334.866
  C      -30.642     -64.342    -335.107
  N      -30.997     -63.259    -334.193
  C      -29.962     -62.391    -333.856
  O      -28.816     -62.505    -334.288
  N      -30.279     -61.401    -332.968
  C      -31.487     -61.230    -332.360
  O      -31.690     -60.351    -331.528
  C      -32.539     -62.186    -332.742
  C      -32.249     -63.146    -333.623
  O      -34.287     -63.294    -340.135
  O      -35.586     -62.174    -338.228
  H      -35.114     -63.043    -340.586
  H      -29.993     -66.663    -334.160
  H      -29.544     -60.760    -332.714
  H      -33.510     -62.080    -332.274
  H      -33.004     -63.870    -333.912
  H      -29.574     -64.557    -334.982
  H      -31.989     -65.589    -333.882
  H      -33.292     -64.903    -335.743
  H      -30.933     -65.777    -337.501
  H      -31.786     -63.738    -338.823
  H      -32.751     -65.226    -338.950
  P      -34.117     -67.487    -335.340
  C      -33.763     -69.959    -336.174
  O      -33.726     -69.024    -335.107
  O      -35.350     -67.531    -336.359
  O      -34.339     -66.680    -334.109
  H      -35.053     -67.617    -337.282
  H      -33.469     -70.923    -335.814
  H      -33.091     -69.646    -336.946
  H      -34.757     -70.013    -336.567

 6  7  8  9  10  11  12  13  14  15  16  27  31  32  33  34  35 0
 6-311+G(2d,p)
 ****
 36  37 0
 6-311+G(2d,p)
 ****
 1  2  3  4  5  17  18  19  20  21  22  23  24  25 0
 3-21G
 ****
 26  28  29  30  38  39  40  41  42  43  44  45 0
 3-21G
 ****


