%nproc=1
%NoSave
%Mem=1900MB
#P OB98/GEN NMR

erre ene a

0 1
  C       84.441      21.988    -537.994
  O       84.805      20.853    -537.205
  P       83.798      19.605    -537.202
  C       85.187      18.173    -538.879
  O       83.951      18.822    -538.590
  C       85.228      17.744    -540.346
  O       85.125      18.879    -541.227
  C       86.530      17.059    -540.733
  O       86.538      15.719    -540.283
  C       86.522      17.203    -542.250
  O       85.868      16.083    -542.882
  C       85.720      18.502    -542.477
  N       86.543      19.577    -543.020
  C       86.575      19.676    -544.412
  O       85.952      18.869    -545.112
  N       87.327      20.671    -544.975
  C       88.006      21.477    -544.223
  N       88.743      22.439    -544.843
  C       88.018      21.386    -542.750
  C       87.266      20.419    -542.220
  O       82.357      20.290    -537.320
  O       83.899      18.749    -535.979
  H       86.012      16.210    -543.844
  H       81.690      19.766    -536.841
  H       88.608      22.075    -542.160
  H       87.218      20.283    -541.141
  H       84.889      18.325    -543.176
  H       87.541      17.241    -542.652
  H       87.381      17.612    -540.314
  H       84.377      17.071    -540.535
  H       88.712      22.470    -545.855
  H       85.315      17.304    -538.233
  H       89.310      23.109    -544.354
  H       86.009      18.859    -538.644
  P       87.241      15.413    -538.876
  C       85.036      14.607    -537.834
  O       86.072      15.570    -537.788
  O       88.099      16.739    -538.630
  O       88.078      14.184    -538.780
  H       88.663      16.639    -537.840
  H       84.433      14.701    -536.928
  H       85.447      13.595    -537.876
  H       84.398      14.792    -538.698
  H       85.196      22.741    -537.905
  H       83.506      22.378    -537.648
  H       84.348      21.695    -539.019

 3  4  5  6  7  8  9  10  11  12  13  21  23  27  28  29  30  32 0
 6-311+G(2d,p)
 ****
 34  35 0
 6-311+G(2d,p)
 ****
 1  2  14  15  16  17  18  19  20  22  24  25  26 0
 3-21G
 ****
 31  33  36  37  38  39  40  41  42  43  44  45  46 0
 3-21G
 ****


