%nproc=1
%NoSave
%Mem=1900MB
#P OB98/GEN NMR

erre ene a

0 1
  C      852.828    -221.716     -83.947
  O      852.289    -220.464     -84.372
  P      853.309    -219.408     -85.047
  C      851.677    -219.064     -87.068
  O      852.977    -219.431     -86.620
  C      851.661    -218.955     -88.604
  O      852.122    -217.635     -89.014
  C      852.506    -220.010     -89.326
  O      851.794    -220.374     -90.513
  C      853.767    -219.231     -89.673
  O      854.463    -219.822     -90.767
  C      853.167    -217.850     -89.988
  N      854.162    -216.775     -89.943
  C      854.977    -216.633     -91.052
  O      854.948    -217.408     -92.019
  N      855.876    -215.599     -91.008
  C      856.088    -214.766     -89.947
  O      856.899    -213.849     -89.949
  C      855.272    -215.040     -88.751
  C      854.371    -216.018     -88.800
  O      854.688    -220.193     -84.916
  O      853.256    -218.065     -84.401
  H      854.614    -221.154     -85.041
  H      854.807    -220.709     -90.485
  H      856.450    -215.459     -91.823
  H      855.447    -214.447     -87.863
  H      853.773    -216.271     -87.928
  H      852.698    -217.837     -90.976
  H      854.434    -219.182     -88.814
  H      852.707    -220.884     -88.715
  H      850.601    -219.052     -88.930
  H      851.394    -218.097     -86.642
  H      850.959    -219.804     -86.704
  P      851.636    -221.941     -90.854
  C      849.272    -222.185     -89.742
  O      850.645    -222.565     -89.768
  O      853.070    -222.480     -90.383
  O      851.360    -222.252     -92.289
  H      853.328    -222.132     -89.499
  H      848.741    -222.888     -89.102
  H      848.845    -222.218     -90.743
  H      849.182    -221.186     -89.325
  H      852.049    -222.314     -83.522
  H      853.588    -221.546     -83.214
  H      853.251    -222.226     -84.787

 3  4  5  6  7  8  9  10  11  12  13  24  28  29  30  31  32 0
 6-311+G(2d,p)
 ****
 33  34 0
 6-311+G(2d,p)
 ****
 1  2  14  15  16  17  18  19  20  21  22  23  25  26  27 0
 3-21G
 ****
 35  36  37  38  39  40  41  42  43  44  45 0
 3-21G
 ****


