%nproc=1
%NoSave
%Mem=1900MB
#P OB98/GEN NMR

erre ene a

0 1
  C       95.282      81.180       7.613
  O       95.252      81.503       6.218
  P       96.133      80.565       5.253
  C       98.067      81.970       4.237
  O       96.739      81.486       4.083
  C       98.127      83.498       4.176
  O       97.365      83.960       3.034
  C       97.565      84.213       5.410
  O       98.361      85.379       5.667
  C       96.200      84.688       4.947
  O       95.723      85.788       5.718
  C       96.502      85.015       3.487
  N       93.360      88.118       1.025
  C       94.553      88.395       1.660
  N       94.953      89.685       1.659
  N       95.290      87.488       2.246
  C       94.783      86.235       2.140
  C       93.617      85.833       1.527
  C       92.793      86.855       0.922
  O       91.699      86.681       0.388
  N       93.439      84.475       1.631
  C       94.489      84.060       2.311
  N       95.328      85.091       2.649
  O       95.033      79.669       4.513
  O       97.125      79.720       5.979
  H       94.788      85.925       5.474
  H       95.224      78.722       4.655
  H       92.822      88.858       0.607
  H       94.679      83.037       2.605
  H       97.048      85.962       3.395
  H       95.479      83.867       5.038
  H       94.468      90.421       1.172
  H       97.512      83.591       6.309
  H       95.848      89.900       2.081
  H       99.170      83.793       4.009
  H       98.697      81.555       3.445
  H       98.460      81.615       5.195
  P       99.469      85.245       6.819
  C       99.629      87.829       7.076
  O      100.297      86.616       6.789
  O      100.494      84.170       6.223
  O       98.925      84.837       8.147
  H      100.948      83.699       6.947
  H       98.631      87.663       7.487
  H       99.541      88.412       6.156
  H      100.220      88.395       7.802
  H       94.663      81.867       8.152
  H       96.287      81.247       7.973
  H       94.918      80.184       7.756

 3  4  5  6  7  8  9  10  11  12  23  26  30  31  33  0
 6-311+G(2d,p)
 ****
 35  36  37  38 0
 6-311+G(2d,p)
 ****
 1  2  13  14  15  16  17  18  19  20  21  22  24  25  27  28  29 0
 3-21G
 ****
 32  34  39  40  41  42  43  44  45  46  47  48  49 0
 3-21G
 ****


