%nproc=1
%NoSave
%Mem=1900MB
#P OB98/GEN NMR

erre ene a

0 1
  C      127.047     256.012     612.063
  O      125.981     255.195     611.626
  H      127.819     256.022     611.289
  H      127.481     255.605     612.981
  H      126.709     257.037     612.233
  P      124.646     255.129     612.510
  C      125.601     253.586     614.345
  O      124.667     253.724     613.281
  C      125.543     252.166     614.901
  O      124.296     251.951     615.599
  C      125.614     251.083     613.834
  O      126.933     250.920     613.351
  C      125.060     249.891     614.597
  O      126.072     249.296     615.425
  C      123.961     250.551     615.457
  N      122.622     250.384     614.894
  C      121.936     249.230     615.260
  O      122.413     248.362     615.984
  N      120.680     249.093     614.730
  C      120.104     249.913     613.808
  O      119.009     249.697     613.297
  C      120.884     251.105     613.439
  C      122.086     251.284     613.992
  O      123.376     255.435     611.789
  O      124.920     256.184     613.684
  H      126.666     248.805     614.823
  H      124.404     256.996     613.516
  H      120.172     248.254     614.971
  H      120.456     251.790     612.721
  H      122.681     252.151     613.728
  H      123.961     250.126     616.469
  H      124.691     249.108     613.935
  H      124.927     251.322     613.010
  H      126.361     252.050     615.628
  H      125.341     254.300     615.135
  H      126.603     253.821     613.969
  P      127.300     251.369     611.861
  C      126.394     249.387     610.502
  O      127.554     250.040     610.998
  O      128.367     252.408     611.751
  O      125.914     251.916     611.278
  H      126.016     252.855     611.031
  H      126.683     248.520     609.946
  H      125.853     250.055     609.865
  H      125.772     249.094     611.322

 6  7  8  9  10  11  12  13  14  15  16  26  31  32  33  34  35 0
 6-311+G(2d,p)
 ****
 36  37 0
 6-311+G(2d,p)
 ****
 1  2  3  4  5  17  18  19  20  21  22  23  24  25 0
 3-21G
 ****
 27  28  29  30  38  39  40  41  42  43  44  45 0
 3-21G
 ****


