%nproc=1
%NoSave
%Mem=1900MB
#P OB98/GEN NMR

erre ene a

0 1
  C        5.347     -10.254      32.460
  O        3.912     -10.331      32.432
  P        3.091     -11.654      32.810
  C        0.530     -12.034      32.808
  O        1.666     -11.586      32.074
  C       -0.739     -11.291      32.355
  O       -0.700      -9.917      32.820
  C       -0.921     -11.172      30.844
  O       -1.314     -12.397      30.255
  C       -1.974     -10.070      30.770
  O       -3.299     -10.592      30.926
  C       -1.618      -9.176      31.973
  N       -1.053      -7.896      31.584
  C       -1.961      -6.912      31.171
  O       -3.156      -7.175      31.069
  N       -1.474      -5.657      30.872
  C       -0.194      -5.443      30.875
  N        0.223      -4.181      30.587
  C        0.804      -6.489      31.179
  C        0.306      -7.678      31.527
  O        2.992     -11.913      34.282
  O        3.847     -12.855      32.065
  H        3.696     -13.685      32.548
  H       -3.335     -11.025      31.806
  H        1.857      -6.276      31.138
  H        0.966      -8.496      31.778
  H       -2.507      -9.009      32.593
  H       -1.947      -9.544      29.805
  H        0.013     -10.820      30.396
  H       -1.605     -11.788      32.810
  H       -0.488      -3.482      30.397
  H        0.699     -11.832      33.869
  H        1.193      -3.902      30.588
  H        0.415     -13.117      32.668
  P       -0.326     -13.023      29.160
  C        0.952     -15.284      29.087
  O       -0.245     -14.600      29.415
  O        1.120     -12.487      29.600
  O       -0.637     -12.634      27.750
  H        1.644     -12.255      28.812
  H        1.037     -16.165      29.726
  H        1.833     -14.649      29.225
  H        0.900     -15.610      28.043
  H        5.657      -9.272      32.169
  H        5.756     -10.973      31.782
  H        5.696     -10.459      33.450

 3  4  5  6  7  8  9  10  11  12  13  24  27  28  29  30  32 0
 6-311+G(2d,p)
 ****
 34  35 0
 6-311+G(2d,p)
 ****
 1  2  14  15  16  17  18  19  20  21  22  23  25  26 0
 3-21G
 ****
 31  33  36  37  38  39  40  41  42  43  44  45  46 0
 3-21G
 ****


