%nproc=1
%NoSave
%Mem=1900MB
#P OB98/GEN NMR

erre ene a

0 1
  C       62.347    -757.047    1042.104
  O       63.549    -756.314    1042.188
  H       61.567    -756.392    1041.700
  H       62.037    -757.391    1043.094
  H       62.470    -757.903    1041.432
  P       64.826    -757.014    1042.858
  C       66.302    -756.821    1040.747
  O       65.662    -757.690    1041.667
  C       67.012    -757.623    1039.645
  O       66.056    -758.550    1039.051
  C       67.561    -756.751    1038.503
  O       68.725    -757.422    1037.972
  C       66.412    -756.794    1037.510
  O       66.815    -756.339    1036.241
  C       65.995    -758.259    1037.638
  N       64.670    -758.510    1037.086
  C       64.616    -758.763    1035.718
  O       65.642    -758.761    1035.030
  N       63.388    -758.999    1035.136
  C       62.316    -758.911    1035.852
  N       61.127    -759.136    1035.217
  C       62.323    -758.578    1037.291
  C       63.522    -758.401    1037.838
  O       64.537    -757.918    1044.013
  O       65.759    -755.788    1043.305
  H       66.035    -756.202    1035.654
  H       65.701    -755.665    1044.266
  H       61.397    -758.500    1037.840
  H       63.633    -758.159    1038.897
  H       66.709    -758.923    1037.135
  H       65.606    -756.138    1037.835
  H       67.831    -755.743    1038.824
  H       67.805    -758.230    1040.096
  H       61.171    -759.339    1034.230
  H       67.039    -756.232    1041.302
  H       60.228    -759.069    1035.674
  H       65.573    -756.137    1040.293
  P       70.220    -756.952    1038.278
  C       70.988    -759.172    1039.362
  O       70.781    -757.767    1039.542
  O       70.381    -755.461    1038.398
  O       71.091    -757.516    1037.069
  H       71.844    -756.914    1036.896
  H       71.361    -759.597    1040.270
  H       71.697    -759.330    1038.577
  H       70.060    -759.639    1039.104

 6  7  8  9  10  11  12  13  14  15  16  26  30  31  32  33  35 0
 6-311+G(2d,p)
 ****
 37  38 0
 6-311+G(2d,p)
 ****
 1  2  3  4  5  17  18  19  20  21  22  23  24  25 0
 3-21G
 ****
 27  28  29  34  36  39  40  41  42  43  44  45  46 0
 3-21G
 ****


