%nproc=1
%NoSave
%Mem=1900MB
#P OB98/GEN NMR

erre ene a

0 1
  C     -154.421    -876.897      85.489
  O     -154.006    -876.027      84.457
  H     -153.554    -877.278      86.034
  H     -155.059    -876.340      86.182
  H     -154.996    -877.732      85.073
  P     -153.064    -876.650      83.318
  C     -150.887    -877.992      83.776
  O     -151.608    -876.785      83.981
  C     -149.714    -878.059      84.753
  O     -150.177    -877.831      86.103
  C     -149.002    -879.405      84.784
  O     -148.072    -879.550      83.719
  C     -148.289    -879.316      86.121
  O     -147.128    -878.472      86.000
  C     -149.354    -878.630      86.996
  N     -150.495    -880.603      91.577
  C     -149.573    -879.695      91.194
  N     -149.327    -879.228      89.953
  C     -150.157    -879.792      89.059
  C     -151.143    -880.740      89.303
  C     -151.302    -881.142      90.640
  N     -152.235    -882.082      91.034
  N     -151.764    -881.114      88.127
  C     -151.187    -880.375      87.196
  N     -150.206    -879.574      87.708
  O     -152.881    -875.447      82.279
  O     -153.570    -877.891      82.664
  H     -147.442    -877.617      85.648
  H     -152.607    -875.793      81.408
  H     -148.946    -879.298      91.983
  H     -151.441    -880.393      86.143
  H     -148.918    -877.956      87.738
  H     -147.946    -880.280      86.492
  H     -149.713    -880.242      84.813
  H     -149.011    -877.252      84.501
  H     -150.505    -878.015      82.751
  H     -152.146    -882.430      91.974
  H     -152.735    -882.594      90.323
  H     -151.556    -878.843      83.929
  P     -147.549    -881.032      83.389
  C     -146.575    -882.898      84.922
  O     -146.725    -881.498      84.675
  O     -146.412    -880.775      82.294
  O     -148.603    -881.974      82.916
  H     -146.306    -881.563      81.716
  H     -146.002    -883.043      85.814
  H     -146.070    -883.354      84.096
  H     -147.540    -883.345      85.041

 6  7  8  9  10  11  12  13  14  15  25  28  32  33  34  35 0
 6-311+G(2d,p)
 ****
 36  39  40 0
 6-311+G(2d,p)
 ****
 1  2  3  4  5  16  17  18  19  20  21  22  23  24 0
 3-21G
 ****
 26  27  29  30  31  37  38  41  42  43  44  45  46  47 0
 3-21G
 ****
 48 0
 3-21G
 ****


