%nproc=1
%NoSave
%Mem=1900MB
#P OB98/GEN NMR

erre ene a

0 1
  C      240.237    -319.391    -579.380
  O      240.480    -319.404    -577.986
  H      240.920    -318.676    -579.848
  H      239.212    -319.079    -579.595
  H      240.420    -320.382    -579.803
  P      239.498    -320.260    -577.053
  C      241.081    -322.246    -576.544
  O      240.450    -321.069    -576.049
  C      242.202    -322.678    -575.605
  O      243.322    -321.780    -575.716
  C      241.794    -322.651    -574.136
  O      240.979    -323.760    -573.819
  C      243.152    -322.622    -573.461
  O      243.737    -323.931    -573.415
  C      243.949    -321.701    -574.415
  N      244.005    -320.319    -573.944
  C      244.544    -320.125    -572.668
  O      244.946    -321.083    -572.009
  N      244.592    -318.849    -572.166
  C      244.163    -317.854    -572.873
  N      244.238    -316.615    -572.317
  C      243.597    -318.012    -574.228
  C      243.544    -319.258    -574.696
  O      238.474    -321.108    -577.747
  O      238.822    -319.160    -576.105
  H      244.492    -323.865    -572.792
  H      238.007    -318.814    -576.514
  H      243.253    -317.155    -574.789
  H      243.150    -319.461    -575.684
  H      244.976    -322.062    -574.535
  H      243.084    -322.251    -572.443
  H      241.279    -321.714    -573.901
  H      242.537    -323.679    -575.901
  H      244.627    -316.554    -571.381
  H      241.489    -322.002    -577.532
  H      244.015    -315.762    -572.809
  H      240.349    -323.056    -576.660
  P      240.344    -323.915    -572.351
  C      238.195    -322.857    -573.314
  O      238.753    -323.945    -572.577
  O      240.835    -322.934    -571.343
  O      240.678    -325.441    -571.976
  H      241.636    -325.552    -571.751
  H      237.136    -322.989    -573.398
  H      238.629    -322.828    -574.292
  H      238.401    -321.939    -572.805

 6  7  8  9  10  11  12  13  14  15  16  26  30  31  32  33  35 0
 6-311+G(2d,p)
 ****
 37  38 0
 6-311+G(2d,p)
 ****
 1  2  3  4  5  17  18  19  20  21  22  23  24  25 0
 3-21G
 ****
 27  28  29  34  36  39  40  41  42  43  44  45  46 0
 3-21G
 ****


