%nproc=1
%NoSave
%Mem=1900MB
#P OB98/GEN NMR

erre ene a

0 1
  C      549.594     325.724     259.526
  O      550.594     326.695     259.266
  H      549.188     325.903     260.522
  H      550.029     324.719     259.495
  H      548.790     325.806     258.790
  P      551.395     326.536     257.882
  C      553.304     326.186     259.625
  O      552.933     326.633     258.327
  C      554.818     326.263     259.783
  O      555.469     325.448     258.779
  C      555.398     327.666     259.607
  O      555.230     328.483     260.757
  C      556.856     327.326     259.355
  O      557.493     326.973     260.594
  C      556.723     326.102     258.424
  N      556.732     326.455     257.008
  C      557.941     326.296     256.321
  O      558.948     325.897     256.913
  N      558.005     326.635     254.989
  C      556.947     327.076     254.383
  N      557.064     327.411     253.071
  C      555.639     327.238     255.051
  C      555.608     326.915     256.349
  O      551.160     327.945     257.146
  O      551.046     325.343     257.058
  H      556.980     326.237     260.979
  H      551.719     327.992     256.334
  H      554.792     327.624     254.522
  H      554.684     327.012     256.910
  H      557.532     325.383     258.610
  H      557.418     328.165     258.931
  H      554.993     328.160     258.717
  H      555.079     325.842     260.768
  H      557.980     327.344     252.645
  H      552.964     325.155     259.744
  H      556.349     327.922     252.569
  H      552.834     326.811     260.388
  P      554.997     330.048     260.534
  C      556.760     331.129     262.105
  O      555.401     330.777     261.907
  O      553.405     330.183     260.503
  O      555.640     330.614     259.297
  H      553.123     330.839     259.836
  H      556.871     331.603     263.058
  H      557.070     331.803     261.334
  H      557.365     330.247     262.073

 6  7  8  9  10  11  12  13  14  15  16  26  30  31  32  33  35 0
 6-311+G(2d,p)
 ****
 37  38 0
 6-311+G(2d,p)
 ****
 1  2  3  4  5  17  18  19  20  21  22  23  24  25 0
 3-21G
 ****
 27  28  29  34  36  39  40  41  42  43  44  45  46 0
 3-21G
 ****


