%nproc=1
%NoSave
%Mem=1900MB
#P OB98/GEN NMR

erre ene a

0 1
  C      -30.591     279.601    -286.411
  O      -30.413     278.529    -287.322
  P      -31.680     278.065    -288.190
  C      -32.350     275.617    -287.601
  O      -32.477     276.999    -287.292
  C      -30.981     275.101    -287.151
  O      -30.801     275.314    -285.731
  C      -30.784     273.603    -287.357
  O      -30.421     273.291    -288.695
  C      -29.623     273.326    -286.416
  O      -28.380     273.721    -287.034
  C      -29.944     274.252    -285.230
  N      -29.366     270.885    -281.501
  C      -28.413     271.497    -282.290
  N      -27.131     271.115    -282.101
  N      -28.690     272.410    -283.188
  C      -30.019     272.682    -283.280
  C      -31.052     272.142    -282.548
  C      -30.730     271.124    -281.570
  O      -31.534     270.505    -280.877
  N      -32.257     272.675    -282.916
  C      -31.961     273.545    -283.864
  N      -30.619     273.551    -284.147
  O      -31.026     277.157    -289.338
  O      -32.494     279.180    -288.750
  H      -27.689     273.639    -286.344
  H      -31.662     277.041    -290.073
  H      -29.095     270.181    -280.829
  H      -32.675     274.173    -284.379
  H      -29.046     274.728    -284.826
  H      -29.527     272.270    -286.153
  H      -26.854     270.379    -281.469
  H      -31.663     273.029    -287.031
  H      -26.419     271.504    -282.707
  H      -30.210     275.671    -287.680
  H      -32.451     275.478    -288.677
  H      -33.148     275.061    -287.102
  P      -30.679     271.781    -289.181
  C      -28.739     270.063    -289.399
  O      -29.478     270.924    -288.549
  O      -30.337     271.839    -290.739
  O      -32.060     271.274    -288.911
  H      -30.825     271.143    -291.224
  H      -27.818     269.770    -288.883
  H      -28.472     270.562    -290.332
  H      -29.325     269.161    -289.617
  H      -29.668     279.798    -285.907
  H      -31.340     279.339    -285.694
  H      -30.899     280.475    -286.945

 3  4  5  6  7  8  9  10  11  12  23  26  30  31 0
 6-311+G(2d,p)
 ****
 33  35  36  37  38 0
 6-311+G(2d,p)
 ****
 1  2  13  14  15  16  17  18  19  20  21  22  24  25 0
 3-21G
 ****
 27  28  29  32  34  39  40  41  42  43  44  45  46  47  48  49 0
 3-21G
 ****


