%nproc=1
%NoSave
%Mem=1900MB
#P OB98/GEN NMR

erre ene a

0 1
  C      512.689    -892.034     236.170
  O      511.441    -891.974     236.832
  H      512.494    -892.024     235.100
  H      513.211    -892.944     236.434
  H      513.285    -891.154     236.417
  P      511.421    -892.024     238.445
  C      512.508    -894.364     238.289
  O      512.549    -893.064     238.883
  C      513.363    -895.344     239.079
  O      512.782    -895.454     240.419
  C      513.393    -896.764     238.461
  O      514.721    -897.254     238.262
  C      512.450    -897.554     239.362
  O      512.721    -898.944     239.390
  C      512.586    -896.854     240.711
  N      511.429    -897.024     241.582
  C      511.545    -897.924     242.640
  O      512.563    -898.564     242.913
  N      510.434    -898.064     243.430
  C      509.229    -897.434     243.258
  O      508.273    -897.614     243.994
  C      509.159    -896.524     242.107
  C      510.236    -896.364     241.337
  O      510.081    -892.254     239.056
  O      512.039    -890.604     238.871
  H      512.694    -899.254     238.474
  H      511.322    -890.034     239.201
  H      510.524    -898.694     244.207
  H      508.218    -896.014     241.925
  H      510.200    -895.694     240.469
  H      513.458    -897.204     241.258
  H      511.426    -897.434     238.988
  H      512.980    -896.734     237.450
  H      514.376    -894.934     239.198
  H      512.889    -894.274     237.257
  H      511.473    -894.714     238.248
  P      515.603    -897.004     236.951
  C      515.942    -899.374     235.875
  O      515.242    -898.154     235.888
  O      517.049    -896.734     237.192
  O      514.952    -895.684     236.296
  H      515.681    -895.214     235.858
  H      515.554    -900.000     235.099
  H      515.825    -899.863     236.820
  H      516.980    -899.188     235.697

 6  7  8  9  10  11  12  13  14  15  16  26  31  32  33  34  35 0
 6-311+G(2d,p)
 ****
 36  37 0
 6-311+G(2d,p)
 ****
 1  2  3  4  5  17  18  19  20  21  22  23  24  25 0
 3-21G
 ****
 27  28  29  30  38  39  40  41  42  43  44  45 0
 3-21G
 ****


