%nproc=1
%NoSave
%Mem=1900MB
#P OB98/GEN NMR

erre ene a

0 1
  C     -166.561    -897.760      70.752
  O     -167.294    -898.120      69.565
  P     -167.401    -897.080      68.353
  C     -165.780    -898.700      67.077
  O     -166.181    -897.360      67.338
  C     -165.589    -898.930      65.572
  O     -166.863    -898.830      64.893
  C     -164.700    -897.890      64.898
  O     -163.327    -898.140      65.148
  C     -165.085    -898.070      63.433
  O     -164.383    -899.200      62.847
  C     -166.594    -898.380      63.541
  N     -167.424    -897.230      63.157
  C     -167.274    -896.750      61.863
  O     -166.468    -897.230      61.067
  N     -168.103    -895.713      61.522
  C     -168.968    -895.064      62.345
  O     -169.650    -894.126      61.978
  C     -169.014    -895.559      63.738
  C     -168.262    -896.590      64.079
  O     -166.927    -895.717      69.049
  O     -168.748    -896.930      67.728
  H     -164.820    -900.000      63.162
  H     -167.343    -894.953      68.573
  H     -168.015    -895.378      60.565
  H     -169.660    -895.056      64.438
  H     -168.273    -896.960      65.098
  H     -166.866    -899.220      62.891
  H     -164.846    -897.190      62.840
  H     -164.969    -896.880      65.226
  H     -165.218    -899.940      65.430
  H     -166.541    -899.400      67.464
  H     -164.843    -898.910      67.613
  P     -162.478    -896.930      65.776
  C     -162.256    -898.060      68.129
  O     -162.734    -896.980      67.358
  O     -163.298    -895.676      65.244
  O     -161.031    -896.970      65.348
  H     -164.264    -895.852      65.181
  H     -161.312    -898.440      67.763
  H     -163.003    -898.860      68.135
  H     -162.128    -897.700      69.151
  H     -166.595    -898.569      71.451
  H     -167.001    -896.890      71.192
  H     -165.543    -897.554      70.494

 3  4  5  6  7  8  9  10  11  12  13  23  28  29  30  31  32 0
 6-311+G(2d,p)
 ****
 33  34 0
 6-311+G(2d,p)
 ****
 1  2  14  15  16  17  18  19  20  21  22  24  25  26 0
 3-21G
 ****
 27  35  36  37  38  39  40  41  42  43  44  45 0
 3-21G
 ****


