%nproc=1
%NoSave
%Mem=1900MB
#P OB98/GEN NMR

erre ene a

0 1
  C     -150.170    -169.947    -441.924
  O     -150.401    -169.093    -440.820
  H     -151.129    -170.159    -442.407
  H     -149.723    -170.890    -441.602
  H     -149.516    -169.453    -442.651
  P     -149.188    -168.840    -439.796
  C     -150.973    -168.614    -437.942
  O     -149.831    -168.029    -438.565
  C     -151.399    -167.808    -436.712
  O     -150.402    -167.910    -435.681
  C     -151.546    -166.316    -436.980
  O     -152.639    -165.981    -437.808
  C     -151.450    -165.724    -435.581
  O     -152.697    -165.692    -434.890
  C     -150.487    -166.711    -434.880
  N     -149.178    -166.123    -434.636
  C     -148.866    -165.864    -433.308
  O     -149.638    -166.088    -432.372
  N     -147.646    -165.292    -433.083
  C     -146.749    -164.917    -434.036
  O     -145.685    -164.367    -433.771
  C     -147.142    -165.191    -435.427
  C     -148.322    -165.772    -435.664
  O     -147.969    -168.192    -440.378
  O     -148.911    -170.286    -439.172
  H     -152.521    -165.334    -433.999
  H     -148.026    -170.320    -438.732
  H     -147.399    -165.108    -432.120
  H     -146.456    -164.902    -436.217
  H     -148.637    -165.984    -436.680
  H     -150.902    -167.019    -433.911
  H     -151.076    -164.698    -435.606
  H     -150.651    -165.976    -437.518
  H     -152.335    -168.233    -436.325
  H     -150.700    -169.629    -437.630
  H     -151.794    -168.676    -438.664
  P     -152.484    -165.561    -439.340
  C     -154.706    -164.313    -438.834
  O     -153.871    -164.902    -439.822
  O     -151.803    -166.542    -440.241
  O     -151.523    -164.272    -439.217
  H     -150.945    -164.261    -440.007
  H     -155.585    -163.919    -439.299
  H     -154.177    -163.522    -438.345
  H     -154.985    -165.054    -438.114

 6  7  8  9  10  11  12  13  14  15  16  26  31  32  33  34  35 0
 6-311+G(2d,p)
 ****
 36  37 0
 6-311+G(2d,p)
 ****
 1  2  3  4  5  17  18  19  20  21  22  23  24  25 0
 3-21G
 ****
 27  28  29  30  38  39  40  41  42  43  44  45 0
 3-21G
 ****


