%nproc=1
%NoSave
%Mem=1900MB
#P OB98/GEN NMR

erre ene a

0 1
  C       35.409    -118.032     -31.712
  O       35.642    -119.211     -30.960
  P       36.123    -120.523     -31.752
  C       38.614    -119.788     -31.943
  O       37.406    -120.097     -32.618
  C       39.779    -120.594     -32.531
  O       39.929    -120.233     -33.929
  C       41.132    -120.358     -31.851
  O       41.859    -121.590     -31.929
  C       41.788    -119.323     -32.748
  O       43.205    -119.298     -32.611
  C       41.287    -119.774     -34.116
  N       44.236    -116.402     -36.466
  C       44.539    -117.283     -35.442
  N       45.828    -117.307     -35.034
  N       43.664    -118.072     -34.876
  C       42.421    -117.947     -35.402
  C       41.987    -117.086     -36.382
  C       42.975    -116.249     -37.027
  O       42.768    -115.518     -37.992
  N       40.638    -117.191     -36.583
  C       40.269    -118.170     -35.782
  N       41.321    -118.692     -35.079
  O       34.975    -120.720     -32.846
  O       36.332    -121.745     -30.912
  H       43.413    -119.318     -31.656
  H       34.288    -121.337     -32.530
  H       44.958    -115.834     -36.874
  H       39.265    -118.547     -35.674
  H       41.877    -120.604     -34.528
  H       41.408    -118.325     -32.498
  H       46.560    -116.749     -35.448
  H       41.049    -120.028     -30.813
  H       46.084    -117.965     -34.311
  H       39.512    -121.657     -32.495
  H       38.510    -120.051     -30.885
  H       38.813    -118.714     -32.016
  P       42.828    -121.968     -30.709
  C       41.151    -123.485     -29.444
  O       41.905    -122.290     -29.442
  O       43.491    -120.557     -30.333
  O       43.878    -122.980     -31.032
  H       44.396    -120.701     -30.002
  H       40.913    -123.754     -28.411
  H       41.701    -124.308     -29.904
  H       40.218    -123.324     -29.991
  H       35.096    -117.247     -31.056
  H       34.644    -118.217     -32.437
  H       36.311    -117.743     -32.210

 3  4  5  6  7  8  9  10  11  12  23  26  30  31 0
 6-311+G(2d,p)
 ****
 33  35  36  37  38 0
 6-311+G(2d,p)
 ****
 1  2  13  14  15  16  17  18  19  20  21  22  24  25 0
 3-21G
 ****
 27  28  29  32  34  39  40  41  42  43  44  45  46  47  48  49 0
 3-21G
 ****


