%nproc=1
%NoSave
%Mem=1900MB
#P OB98/GEN NMR

erre ene a

0 1
  C      -32.850    -906.847      95.803
  O      -32.182    -905.958      96.683
  P      -32.562    -905.895      98.230
  C      -30.190    -906.017      99.350
  O      -31.426    -906.642      99.064
  C      -29.049    -907.006      99.066
  O      -28.901    -907.207      97.655
  C      -27.721    -906.518      99.627
  O      -27.485    -907.037     100.921
  C      -26.733    -906.985      98.584
  O      -26.402    -908.369      98.798
  C      -27.533    -906.825      97.278
  N      -27.594    -905.490      96.656
  C      -26.400    -904.853      96.299
  O      -25.286    -905.347      96.445
  N      -26.544    -903.590      95.774
  C      -27.724    -902.950      95.531
  O      -27.835    -901.745      95.306
  C      -28.922    -903.779      95.673
  C      -28.820    -904.980      96.239
  O      -33.816    -906.899      98.337
  O      -32.891    -904.538      98.761
  H      -25.697    -908.592      98.139
  H      -34.645    -906.403      98.334
  H      -25.688    -903.064      95.642
  H      -29.876    -903.356      95.362
  H      -29.698    -905.589      96.382
  H      -27.202    -907.529      96.515
  H      -25.790    -906.429      98.652
  H      -27.710    -905.408      99.652
  H      -29.315    -907.973      99.522
  H      -30.163    -905.686     100.399
  H      -30.063    -905.115      98.731
  P      -27.405    -906.051     102.181
  C      -29.100    -907.326     103.634
  O      -28.855    -906.146     102.876
  O      -26.923    -904.670     101.882
  O      -26.430    -906.819     103.188
  H      -25.515    -906.455     103.108
  H      -30.021    -907.181     104.196
  H      -28.279    -907.506     104.325
  H      -29.221    -908.173     102.961
  H      -32.452    -906.737      94.816
  H      -33.896    -906.621      95.793
  H      -32.706    -907.854      96.136

 3  4  5  6  7  8  9  10  11  12  13  23  28  29  30  31  32 0
 6-311+G(2d,p)
 ****
 33  34 0
 6-311+G(2d,p)
 ****
 1  2  14  15  16  17  18  19  20  21  22  24  25  26  27 0
 3-21G
 ****
 35  36  37  38  39  40  41  42  43  44  45 0
 3-21G
 ****


