%nproc=1
%NoSave
%Mem=1900MB
#P OB98/GEN NMR

erre ene a

0 1
  C      289.333     430.463    -380.373
  O      290.310     430.206    -379.362
  P      291.755     429.630    -379.785
  C      292.931     431.929    -379.954
  O      292.531     430.744    -380.632
  C      294.393     432.261    -380.305
  O      294.529     432.646    -381.703
  C      294.933     433.462    -379.517
  O      295.132     433.263    -378.136
  C      296.125     433.877    -380.356
  O      297.277     433.093    -380.036
  C      295.630     433.576    -381.782
  N      295.254     434.792    -382.516
  C      296.139     435.241    -383.475
  O      297.214     434.690    -383.705
  N      295.762     436.364    -384.164
  C      294.620     437.101    -383.952
  O      294.348     438.115    -384.572
  C      293.729     436.589    -382.893
  C      294.074     435.488    -382.227
  O      291.755     428.250    -380.360
  O      292.553     429.647    -378.387
  H      297.127     432.188    -380.370
  H      293.082     428.821    -378.331
  H      296.392     436.706    -384.872
  H      292.825     437.146    -382.685
  H      293.434     435.091    -381.441
  H      296.414     433.079    -382.367
  H      296.390     434.927    -380.170
  H      294.182     434.263    -379.593
  H      295.010     431.371    -380.142
  H      292.819     431.794    -378.882
  H      292.265     432.741    -380.240
  P      295.040     434.445    -377.053
  C      292.463     434.257    -376.795
  O      293.569     435.079    -377.124
  O      296.184     435.415    -376.985
  O      294.980     433.624    -375.681
  H      295.431     434.151    -374.983
  H      291.545     434.836    -376.914
  H      292.533     433.908    -375.768
  H      292.418     433.397    -377.469
  H      288.440     430.839    -379.919
  H      289.113     429.555    -380.895
  H      289.715     431.187    -381.062

 3  4  5  6  7  8  9  10  11  12  13  23  28  29  30  31  32 0
 6-311+G(2d,p)
 ****
 33  34 0
 6-311+G(2d,p)
 ****
 1  2  14  15  16  17  18  19  20  21  22  24  25  26  27 0
 3-21G
 ****
 35  36  37  38  39  40  41  42  43  44  45 0
 3-21G
 ****


