%nproc=1
%NoSave
%Mem=1900MB
#P OB98/GEN NMR

erre ene a

0 1
  C      -22.474      -4.389     -40.923
  O      -23.040      -3.578     -39.914
  P      -23.241      -4.129     -38.426
  C      -25.692      -4.765     -38.824
  O      -24.402      -5.234     -38.458
  C      -26.701      -4.975     -37.697
  O      -27.997      -4.469     -38.112
  C      -26.880      -6.440     -37.280
  O      -27.049      -6.459     -35.859
  C      -28.168      -6.839     -37.975
  O      -28.793      -7.957     -37.360
  C      -28.953      -5.525     -37.896
  N      -30.038      -5.466     -38.863
  C      -31.338      -5.535     -38.360
  O      -31.528      -5.773     -37.166
  N      -32.386      -5.350     -39.226
  C      -32.158      -5.294     -40.502
  N      -33.217      -5.042     -41.319
  C      -30.814      -5.470     -41.085
  C      -29.806      -5.507     -40.218
  O      -23.417      -3.078     -37.380
  O      -21.925      -4.998     -38.146
  H      -21.512      -4.693     -37.315
  H      -28.352      -8.776     -37.669
  H      -30.690      -5.542     -42.155
  H      -28.778      -5.606     -40.549
  H      -29.369      -5.385     -36.890
  H      -27.958      -7.098     -39.019
  H      -26.026      -7.066     -37.552
  H      -26.380      -4.376     -36.836
  H      -34.116      -4.886     -40.881
  H      -26.020      -5.323     -39.704
  H      -33.097      -4.671     -42.260
  H      -25.637      -3.706     -39.102
  P      -25.930      -7.191     -34.969
  C      -27.276      -9.257     -34.162
  O      -26.239      -8.763     -34.983
  O      -26.379      -6.776     -33.482
  O      -24.514      -6.776     -35.204
  H      -25.601      -6.808     -32.896
  H      -27.300     -10.346     -34.248
  H      -28.241      -8.861     -34.489
  H      -27.100      -8.991     -33.117
  H      -22.427      -3.838     -41.839
  H      -23.079      -5.260     -41.062
  H      -21.487      -4.683     -40.633

 3  4  5  6  7  8  9  10  11  12  13  24  27  28  29  30  32 0
 6-311+G(2d,p)
 ****
 34  35 0
 6-311+G(2d,p)
 ****
 1  2  14  15  16  17  18  19  20  21  22  23  25  26 0
 3-21G
 ****
 31  33  36  37  38  39  40  41  42  43  44  45  46 0
 3-21G
 ****


