%nproc=1
%NoSave
%Mem=1900MB
#P OB98/GEN NMR

erre ene a

0 1
  C      -55.064     240.134      20.400
  O      -54.797     240.888      21.563
  P      -55.980     241.388      22.517
  C      -55.541     243.909      22.397
  O      -55.512     242.751      23.219
  C      -54.941     245.118      23.116
  O      -55.620     245.309      24.384
  C      -53.439     244.996      23.403
  O      -52.863     246.294      23.214
  C      -53.397     244.604      24.866
  O      -52.155     244.912      25.476
  C      -54.603     245.383      25.404
  N      -55.084     244.859      26.672
  C      -54.277     245.075      27.792
  O      -53.155     245.567      27.661
  N      -54.760     244.712      29.025
  C      -55.858     244.025      29.107
  N      -56.334     243.747      30.351
  C      -56.606     243.564      27.919
  C      -56.194     244.047      26.750
  O      -56.513     240.359      23.459
  O      -57.122     241.879      21.503
  H      -57.961     241.433      21.728
  H      -52.268     244.900      26.450
  H      -57.442     242.890      28.032
  H      -56.692     243.791      25.823
  H      -54.350     246.443      25.532
  H      -53.567     243.524      24.963
  H      -52.938     244.280      22.743
  H      -55.137     246.007      22.506
  H      -55.816     244.114      31.140
  H      -56.583     244.125      22.147
  H      -57.311     243.508      30.513
  H      -55.007     243.715      21.459
  P      -52.250     246.656      21.774
  C      -49.872     245.901      22.490
  O      -50.681     246.927      21.961
  O      -52.822     248.141      21.543
  O      -52.656     245.775      20.636
  H      -52.866     248.319      20.585
  H      -48.857     246.282      22.610
  H      -49.848     245.044      21.808
  H      -50.244     245.581      23.470
  H      -54.143     239.901      19.907
  H      -55.688     240.702      19.742
  H      -55.563     239.227      20.670

 3  4  5  6  7  8  9  10  11  12  13  24  27  28  29  30  32 0
 6-311+G(2d,p)
 ****
 34  35 0
 6-311+G(2d,p)
 ****
 1  2  14  15  16  17  18  19  20  21  22  23  25  26 0
 3-21G
 ****
 31  33  36  37  38  39  40  41  42  43  44  45  46 0
 3-21G
 ****


