%nproc=1
%NoSave
%Mem=1900MB
#P OB98/GEN NMR

erre ene a

0 1
  C      -39.032     -48.550     -50.771
  O      -39.884     -49.605     -51.248
  P      -40.719     -50.478     -50.187
  C      -42.286     -49.172     -48.549
  O      -42.084     -49.706     -49.848
  C      -43.753     -48.775     -48.363
  O      -44.150     -47.816     -49.369
  C      -44.737     -49.928     -48.502
  O      -44.759     -50.749     -47.347
  C      -46.044     -49.180     -48.740
  O      -46.621     -48.746     -47.497
  C      -45.572     -47.973     -49.573
  N      -45.897     -48.104     -50.990
  C      -46.890     -47.261     -51.478
  O      -47.520     -46.480     -50.768
  N      -47.162     -47.371     -52.815
  C      -46.600     -48.270     -53.678
  O      -46.900     -48.333     -54.863
  C      -45.617     -49.189     -53.086
  C      -45.320     -49.070     -51.791
  O      -39.874     -50.261     -48.841
  O      -40.848     -51.932     -50.502
  H      -46.808     -49.553     -46.978
  H      -39.986     -51.036     -48.258
  H      -47.857     -46.749     -53.196
  H      -45.164     -49.932     -53.730
  H      -44.595     -49.741     -51.339
  H      -46.031     -47.051     -49.194
  H      -46.794     -49.800     -49.242
  H      -44.496     -50.519     -49.393
  H      -43.856     -48.298     -47.378
  H      -41.657     -48.286     -48.421
  H      -41.991     -49.920     -47.806
  P      -44.274     -52.270     -47.534
  C      -41.839     -53.212     -47.404
  O      -42.701     -52.177     -47.825
  O      -44.939     -52.629     -48.946
  O      -44.686     -53.158     -46.407
  H      -44.975     -51.860     -49.540
  H      -42.331     -54.186     -47.440
  H      -41.507     -53.010     -46.381
  H      -40.966     -53.233     -48.063
  H      -38.554     -48.074     -51.602
  H      -38.289     -48.959     -50.119
  H      -39.619     -47.832     -50.237

 3  4  5  6  7  8  9  10  11  12  13  23  28  29  30  31  32 0
 6-311+G(2d,p)
 ****
 33  34 0
 6-311+G(2d,p)
 ****
 1  2  14  15  16  17  18  19  20  21  22  24  25  26 0
 3-21G
 ****
 27  35  36  37  38  39  40  41  42  43  44  45 0
 3-21G
 ****


