%nproc=1
%NoSave
%Mem=1900MB
#P OB98/GEN NMR

erre ene a

0 1
  C      225.260     -77.576     189.925
  O      223.963     -77.278     189.402
  P      222.982     -76.433     190.345
  C      223.411     -73.876     190.173
  O      222.728     -75.009     189.654
  C      222.411     -72.889     190.776
  O      223.076     -71.839     191.514
  C      221.565     -72.170     189.729
  O      220.564     -73.030     189.209
  C      221.035     -70.999     190.547
  O      219.931     -71.417     191.369
  C      222.241     -70.658     191.439
  N      222.445     -65.567     190.946
  C      221.521     -66.385     191.496
  N      221.539     -67.731     191.585
  C      222.662     -68.230     191.041
  C      223.694     -67.521     190.449
  C      223.556     -66.123     190.407
  N      224.491     -65.289     189.835
  N      224.680     -68.376     190.002
  C      224.237     -69.583     190.299
  N      223.027     -69.544     190.939
  O      223.898     -76.082     191.611
  O      221.747     -77.173     190.745
  H      219.191     -71.643     190.770
  H      223.609     -76.602     192.385
  H      220.649     -65.893     191.919
  H      224.753     -70.507     190.070
  H      221.942     -70.405     192.463
  H      220.687     -70.167     189.928
  H      222.204     -71.804     188.917
  H      221.760     -73.442     191.466
  H      223.985     -73.387     189.382
  H      224.279     -64.307     189.776
  H      225.280     -65.699     189.353
  H      224.133     -74.214     190.922
  P      220.046     -72.750     187.717
  C      221.788     -74.184     186.488
  O      220.443     -74.089     186.921
  O      221.125     -71.697     187.192
  O      218.619     -72.334     187.613
  H      222.034     -71.967     187.416
  H      221.930     -75.150     185.996
  H      222.468     -74.117     187.342
  H      222.007     -73.387     185.771
  H      225.814     -78.140     189.204
  H      225.159     -78.147     190.824
  H      225.777     -76.664     190.138

 3  4  5  6  7  8  9  10  11  12  22  25  29  30  31  32 0
 6-311+G(2d,p)
 ****
 33  36  37 0
 6-311+G(2d,p)
 ****
 1  2  13  14  15  16  17  18  19  20  21  23  24  26 0
 3-21G
 ****
 27  28  34  35  38  39  40  41  42  43  44  45  46  47  48 0
 3-21G
 ****


