%nproc=1
%NoSave
%Mem=1900MB
#P OB98/GEN NMR

erre ene a

0 1
  C     -255.115     -49.857     404.961
  O     -254.288     -49.580     406.071
  P     -253.070     -48.543     405.945
  C     -253.431     -47.107     408.057
  O     -253.585     -47.191     406.641
  C     -254.042     -45.813     408.595
  O     -255.480     -45.914     408.645
  C     -253.603     -45.458     410.010
  O     -252.298     -44.912     410.003
  C     -254.697     -44.479     410.420
  O     -254.429     -43.161     409.923
  C     -255.943     -45.081     409.728
  N     -256.792     -45.819     410.658
  C     -257.841     -45.092     411.234
  O     -257.986     -43.896     410.977
  N     -258.670     -45.726     412.128
  C     -258.449     -46.967     412.435
  N     -259.299     -47.539     413.334
  C     -257.339     -47.761     411.872
  C     -256.555     -47.128     411.001
  O     -252.510     -48.382     404.572
  O     -252.007     -49.106     407.004
  H     -253.655     -42.834     410.422
  H     -251.560     -49.921     406.668
  H     -257.192     -48.788     412.168
  H     -255.714     -47.632     410.542
  H     -256.546     -44.286     409.271
  H     -254.789     -44.402     411.509
  H     -253.648     -46.350     410.646
  H     -253.783     -45.002     407.900
  H     -260.031     -46.956     413.717
  H     -252.363     -47.128     408.289
  H     -259.200     -48.485     413.667
  H     -253.902     -47.982     408.523
  P     -251.361     -45.076     411.287
  C     -250.288     -47.243     410.429
  O     -251.034     -46.634     411.464
  O     -251.835     -44.380     412.521
  O     -249.957     -44.470     410.803
  H     -249.594     -43.896     411.508
  H     -249.856     -48.172     410.806
  H     -249.481     -46.589     410.087
  H     -250.951     -47.475     409.588
  H     -255.864     -50.568     405.243
  H     -254.522     -50.260     404.166
  H     -255.586     -48.954     404.633

 3  4  5  6  7  8  9  10  11  12  13  23  27  28  29  30  32 0
 6-311+G(2d,p)
 ****
 34  35 0
 6-311+G(2d,p)
 ****
 1  2  14  15  16  17  18  19  20  21  22  24  25  26 0
 3-21G
 ****
 31  33  36  37  38  39  40  41  42  43  44  45  46 0
 3-21G
 ****


