%nproc=1
%NoSave
%Mem=1900MB
#P OB98/GEN NMR

erre ene a

0 1
  C       56.618      56.198      35.956
  O       55.918      56.968      34.999
  H       57.138      55.375      35.461
  H       57.355      56.837      36.449
  H       55.930      55.804      36.711
  P       54.668      56.266      34.281
  C       52.844      58.105      34.063
  O       53.932      57.428      33.450
  C       53.356      59.195      35.005
  O       54.118      60.160      34.233
  C       52.238      59.954      35.726
  O       52.656      60.231      37.064
  C       52.127      61.250      34.940
  O       51.585      62.309      35.720
  C       53.575      61.466      34.508
  N       52.071      65.890      32.453
  C       51.905      65.365      33.685
  N       52.344      64.178      34.154
  C       53.062      63.535      33.217
  C       53.316      63.943      31.919
  C       52.775      65.182      31.537
  N       52.909      65.709      30.273
  N       54.061      62.991      31.249
  C       54.252      62.028      32.130
  N       53.664      62.310      33.330
  O       53.674      55.997      35.511
  O       54.970      55.019      33.523
  H       50.609      62.228      35.712
  H       53.962      55.198      35.992
  H       51.339      65.973      34.384
  H       54.795      61.111      31.947
  H       54.182      61.937      35.292
  H       51.479      61.099      34.070
  H       51.297      59.404      35.745
  H       54.053      58.741      35.720
  H       52.249      57.382      34.630
  H       52.441      66.577      30.070
  H       53.377      65.168      29.561
  H       52.216      58.554      33.286
  P       52.224      59.170      38.189
  C       53.417      59.803      40.401
  O       52.238      59.905      39.616
  O       53.475      58.175      38.260
  O       50.962      58.437      37.866
  H       53.170      57.251      38.206
  H       53.282      60.338      41.318
  H       54.241      60.221      39.862
  H       53.616      58.773      40.614

 6  7  8  9  10  11  12  13  14  15  25  28  32  33  34  35 0
 6-311+G(2d,p)
 ****
 36  39  40 0
 6-311+G(2d,p)
 ****
 1  2  3  4  5  16  17  18  19  20  21  22  23  24 0
 3-21G
 ****
 26  27  29  30  31  37  38  41  42  43  44  45  46  47 0
 3-21G
 ****
 48 0
 3-21G
 ****


