%nproc=1
%NoSave
%Mem=1900MB
#P OB98/GEN NMR

erre ene a

0 1
  C       89.092      79.179      13.389
  O       87.721      79.533      13.318
  P       87.310      80.676      12.266
  C       87.129      82.418      14.192
  O       87.695      82.081      12.932
  C       87.781      83.685      14.740
  O       89.179      83.452      15.002
  C       87.739      84.878      13.794
  O       86.449      85.464      13.764
  C       88.825      85.757      14.406
  O       88.311      86.445      15.557
  C       89.872      84.717      14.836
  N       94.754      85.797      13.725
  C       93.969      86.142      14.771
  N       92.674      85.833      14.985
  C       92.192      85.081      13.981
  C       92.865      84.671      12.842
  C       94.211      85.057      12.732
  N       95.005      84.706      11.660
  N       92.037      83.934      12.023
  C       90.886      83.889      12.663
  N       90.935      84.556      13.857
  O       85.714      80.664      12.321
  O       87.826      80.465      10.875
  H       88.143      85.771      16.246
  H       85.332      80.869      11.446
  H       94.446      86.743      15.539
  H       89.998      83.385      12.307
  H       90.343      84.965      15.794
  H       89.206      86.514      13.713
  H       88.032      84.574      12.780
  H       87.291      83.936      15.691
  H       87.300      81.600      14.899
  H       95.910      85.147      11.588
  H       94.560      84.278      10.858
  H       86.051      82.552      14.072
  P       85.729      85.586      12.333
  C       86.169      88.116      12.255
  O       86.439      86.861      11.657
  O       84.294      86.159      12.741
  O       85.728      84.337      11.522
  H       84.362      86.918      13.347
  H       86.750      88.882      11.734
  H       86.460      88.105      13.310
  H       85.106      88.356      12.163
  H       89.225      78.413      14.124
  H       89.669      80.038      13.662
  H       89.417      78.819      12.435

 3  4  5  6  7  8  9  10  11  12  22  25  29  30  31  32 0
 6-311+G(2d,p)
 ****
 33  36  37 0
 6-311+G(2d,p)
 ****
 1  2  13  14  15  16  17  18  19  20  21  23  24  26 0
 3-21G
 ****
 27  28  34  35  38  39  40  41  42  43  44  45  46  47  48 0
 3-21G
 ****


