%nproc=1
%NoSave
%Mem=1900MB
#P OB98/GEN NMR

erre ene a

0 1
  C       41.656      60.843      58.524
  O       40.382      61.207      59.029
  P       39.124      60.220      58.890
  C       37.648      59.592      56.881
  O       38.454      60.597      57.483
  C       36.676      60.224      55.888
  O       35.826      61.149      56.606
  C       37.309      61.048      54.766
  O       37.739      60.289      53.646
  C       36.129      61.921      54.358
  O       35.229      61.167      53.525
  C       35.471      62.228      55.706
  N       34.969      67.317      55.478
  C       34.359      66.316      54.803
  N       34.562      64.984      54.907
  C       35.476      64.721      55.855
  C       36.177      65.631      56.629
  C       35.892      66.990      56.412
  N       36.500      68.007      57.117
  N       37.046      64.980      57.483
  C       36.859      63.700      57.235
  N       35.915      63.492      56.267
  O       38.208      60.215      60.064
  O       39.775      58.788      58.605
  H       34.585      61.802      53.157
  H       39.118      58.084      58.767
  H       33.612      66.625      54.077
  H       37.384      62.894      57.727
  H       34.377      62.254      55.644
  H       36.430      62.802      53.784
  H       38.114      61.687      55.147
  H       36.039      59.431      55.476
  H       37.079      59.089      57.671
  H       36.140      68.939      56.988
  H       37.062      67.760      57.919
  H       38.286      58.851      56.392
  P       39.057      60.801      52.877
  C       39.534      62.925      51.423
  O       38.583      62.058      51.999
  O       39.794      59.741      52.135
  O       39.912      61.475      54.052
  H       39.529      62.281      54.434
  H       39.020      63.607      50.740
  H       40.281      62.364      50.856
  H       40.027      63.513      52.202
  H       42.354      61.631      58.715
  H       41.587      60.675      57.469
  H       41.988      59.948      59.006

 3  4  5  6  7  8  9  10  11  12  22  25  29  30  31  32 0
 6-311+G(2d,p)
 ****
 33  36  37 0
 6-311+G(2d,p)
 ****
 1  2  13  14  15  16  17  18  19  20  21  23  24  26 0
 3-21G
 ****
 27  28  34  35  38  39  40  41  42  43  44  45  46  47  48 0
 3-21G
 ****


