%nproc=1
%NoSave
%Mem=1900MB
#P OB98/GEN NMR

erre ene a

0 1
  C      -42.108     -22.920      95.430
  O      -42.831     -21.921      94.735
  P      -42.737     -20.406      95.254
  C      -45.132     -20.639      96.307
  O      -43.774     -20.277      96.471
  C      -46.039     -19.662      97.061
  O      -45.649     -19.645      98.462
  C      -45.978     -18.216      96.551
  O      -47.293     -17.662      96.691
  C      -45.016     -17.556      97.523
  O      -45.167     -16.147      97.569
  C      -45.386     -18.276      98.824
  N      -44.340     -18.206      99.844
  C      -44.689     -17.723     101.101
  O      -45.816     -17.332     101.396
  N      -43.674     -17.675     102.022
  C      -42.366     -17.989     101.796
  O      -41.495     -17.909     102.653
  C      -42.048     -18.447     100.436
  C      -43.033     -18.543      99.543
  O      -43.443     -19.623      94.054
  O      -41.348     -19.964      95.566
  H      -44.177     -20.120      93.655
  H      -46.093     -15.950      97.800
  H      -43.912     -17.362     102.952
  H      -41.017     -18.692     100.213
  H      -42.823     -18.876      98.535
  H      -46.319     -17.865      99.226
  H      -43.986     -17.778      97.221
  H      -45.657     -18.153      95.508
  H      -47.067     -20.042      97.015
  H      -45.290     -21.647      96.700
  H      -45.376     -20.652      95.239
  P      -48.077     -17.224      95.355
  C      -47.616     -14.708      95.914
  O      -47.577     -15.753      94.968
  O      -49.539     -16.956      95.961
  O      -48.081     -18.242      94.264
  H      -49.521     -16.403      96.759
  H      -46.944     -13.912      95.585
  H      -47.292     -15.051      96.900
  H      -48.631     -14.309      95.980
  H      -42.273     -23.869      94.964
  H      -42.440     -22.959      96.446
  H      -41.064     -22.687      95.405

 3  4  5  6  7  8  9  10  11  12  13  24  28  29  30  31  32 0
 6-311+G(2d,p)
 ****
 33  34 0
 6-311+G(2d,p)
 ****
 1  2  14  15  16  17  18  19  20  21  22  23  25  26  27 0
 3-21G
 ****
 35  36  37  38  39  40  41  42  43  44  45 0
 3-21G
 ****


