%nproc=1
%NoSave
%Mem=1900MB
#P OB98/GEN NMR

erre ene a

0 1
  C     -146.114    -304.913    -341.743
  O     -145.875    -303.883    -342.682
  H     -145.186    -305.123    -341.205
  H     -146.439    -305.824    -342.253
  H     -146.878    -304.599    -341.024
  P     -147.102    -303.503    -343.649
  C     -147.323    -301.102    -342.650
  O     -147.903    -302.387    -342.816
  C     -148.347    -300.026    -342.996
  O     -149.590    -300.261    -342.301
  C     -147.923    -298.614    -342.607
  O     -147.000    -298.043    -343.519
  C     -149.266    -297.905    -342.642
  O     -149.647    -297.661    -344.009
  C     -150.181    -298.969    -341.989
  N     -150.315    -298.800    -340.542
  C     -151.615    -298.637    -340.043
  O     -152.581    -298.627    -340.808
  N     -151.790    -298.454    -338.695
  C     -150.762    -298.446    -337.905
  N     -150.993    -298.247    -336.577
  C     -149.379    -298.630    -338.381
  C     -149.231    -298.798    -339.692
  O     -148.070    -304.774    -343.550
  O     -146.739    -303.113    -345.042
  H     -150.453    -297.118    -343.983
  H     -148.920    -304.585    -344.015
  H     -148.551    -298.604    -337.684
  H     -148.242    -298.938    -340.114
  H     -151.181    -298.950    -342.439
  H     -149.255    -296.939    -342.132
  H     -147.534    -298.578    -341.582
  H     -148.557    -300.094    -344.073
  H     -151.944    -298.062    -336.289
  H     -146.454    -301.027    -343.313
  H     -150.247    -298.045    -335.920
  H     -146.995    -300.970    -341.613
  P     -145.895    -297.033    -342.928
  C     -144.009    -298.822    -343.049
  O     -144.764    -297.937    -342.229
  O     -146.648    -296.362    -341.689
  O     -145.389    -296.011    -343.900
  H     -146.424    -295.415    -341.611
  H     -143.301    -299.351    -342.445
  H     -143.490    -298.260    -343.797
  H     -144.668    -299.520    -343.521

 6  7  8  9  10  11  12  13  14  15  16  26  30  31  32  33  35 0
 6-311+G(2d,p)
 ****
 37  38 0
 6-311+G(2d,p)
 ****
 1  2  3  4  5  17  18  19  20  21  22  23  24  25 0
 3-21G
 ****
 27  28  29  34  36  39  40  41  42  43  44  45  46 0
 3-21G
 ****


