%nproc=1
%NoSave
%Mem=1900MB
#P OB98/GEN NMR

erre ene a

0 1
  C      -39.006    -154.878    -243.888
  O      -39.839    -153.819    -244.313
  H      -39.554    -155.819    -243.996
  H      -38.746    -154.742    -242.834
  H      -38.096    -154.930    -244.489
  P      -39.191    -152.377    -244.566
  C      -40.040    -150.035    -245.237
  O      -40.388    -151.377    -244.933
  C      -40.873    -149.504    -246.412
  O      -40.667    -150.368    -247.561
  C      -42.375    -149.535    -246.098
  O      -43.098    -148.536    -246.811
  C      -42.796    -150.912    -246.605
  O      -44.186    -150.995    -246.898
  C      -41.890    -151.069    -247.827
  N      -41.477    -154.584    -251.501
  C      -41.989    -153.303    -251.573
  N      -42.447    -152.903    -252.783
  N      -42.062    -152.494    -250.548
  C      -41.638    -153.050    -249.389
  C      -41.135    -154.315    -249.186
  C      -41.020    -155.192    -250.334
  O      -40.600    -156.340    -250.319
  N      -40.813    -154.519    -247.864
  C      -41.124    -153.392    -247.269
  N      -41.610    -152.456    -248.153
  O      -38.437    -152.545    -245.973
  O      -38.257    -151.892    -243.498
  H      -44.374    -151.908    -247.181
  H      -37.733    -151.876    -246.061
  H      -41.415    -155.159    -252.326
  H      -41.012    -153.190    -246.214
  H      -42.359    -150.604    -248.711
  H      -42.583    -151.645    -245.820
  H      -42.584    -153.560    -253.541
  H      -42.586    -149.437    -245.031
  H      -43.093    -152.110    -252.787
  H      -40.528    -148.503    -246.699
  H      -38.974    -150.024    -245.483
  H      -40.169    -149.400    -244.359
  P      -43.717    -147.305    -245.994
  C      -44.218    -144.756    -246.490
  O      -43.891    -146.043    -246.958
  O      -42.543    -146.876    -245.002
  O      -44.987    -147.633    -245.256
  H      -42.809    -147.020    -244.076
  H      -44.279    -144.080    -247.318
  H      -43.462    -144.421    -245.811
  H      -45.161    -144.789    -245.986

 6  7  8  9  10  11  12  13  14  15  26  29  33  34 0
 6-311+G(2d,p)
 ****
 36  38  39  40  41 0
 6-311+G(2d,p)
 ****
 1  2  3  4  5  16  17  18  19  20  21  22  23  24  25 0
 3-21G
 ****
 27  28  30  31  32  35  37  42  43  44  45  46  47 0
 3-21G
 ****
 48  49 0
 3-21G
 ****


