%nproc=1
%NoSave
%Mem=1900MB
#P OB98/GEN NMR

erre ene a

0 1
  C      289.877     320.161     123.097
  O      289.062     321.311     122.991
  H      290.923     320.477     123.122
  H      289.729     319.506     122.231
  H      289.654     319.616     124.019
  P      287.476     321.116     122.894
  C      287.596     320.812     125.458
  O      287.035     320.351     124.235
  C      286.995     320.048     126.634
  O      287.674     320.401     127.857
  C      285.510     320.332     126.871
  O      284.711     319.556     125.992
  C      285.374     319.893     128.321
  O      285.333     318.455     128.389
  C      286.690     320.410     128.932
  N      286.645     323.179     133.184
  C      286.591     321.808     133.020
  N      286.473     321.072     134.146
  N      286.630     321.211     131.857
  C      286.674     322.077     130.816
  C      286.715     323.452     130.851
  C      286.738     324.094     132.150
  O      286.810     325.307     132.340
  N      286.660     323.990     129.592
  C      286.638     322.939     128.794
  N      286.637     321.752     129.488
  O      286.966     320.481     121.636
  O      286.883     322.589     123.106
  H      284.397     318.191     128.324
  H      286.756     323.045     122.251
  H      286.601     323.578     134.107
  H      286.628     322.979     127.708
  H      287.062     319.753     129.725
  H      284.464     320.264     128.790
  H      286.287     321.476     135.054
  H      285.288     321.400     126.800
  H      286.371     320.068     134.040
  H      287.171     318.980     126.468
  H      287.376     321.879     125.538
  H      288.685     320.680     125.452
  P      283.134     319.820     125.842
  C      283.294     321.252     123.696
  O      283.005     321.222     125.081
  O      282.361     319.726     127.116
  O      282.667     318.786     124.717
  H      282.459     317.889     125.079
  H      283.166     322.248     123.326
  H      282.630     320.591     123.179
  H      284.305     320.939     123.536

 6  7  8  9  10  11  12  13  14  15  26  29  33  34 0
 6-311+G(2d,p)
 ****
 36  38  39  40  41 0
 6-311+G(2d,p)
 ****
 1  2  3  4  5  16  17  18  19  20  21  22  23  24  25 0
 3-21G
 ****
 27  28  30  31  32  35  37  42  43  44  45  46  47 0
 3-21G
 ****
 48  49 0
 3-21G
 ****


