%nproc=1
%NoSave
%Mem=1900MB
#P OB98/GEN NMR

erre ene a

0 1
  C      -26.692      64.685     -79.152
  O      -27.371      65.816     -79.666
  H      -27.298      64.243     -78.357
  H      -25.724      64.970     -78.730
  H      -26.546      63.941     -79.939
  P      -26.611      66.731     -80.741
  C      -24.318      67.928     -80.667
  O      -25.448      67.473     -79.929
  C      -23.439      68.811     -79.787
  O      -24.139      70.020     -79.435
  C      -23.056      68.153     -78.469
  O      -22.046      67.184     -78.662
  C      -22.655      69.364     -77.651
  O      -21.326      69.794     -77.973
  C      -23.699      70.408     -78.112
  N      -24.829      70.518     -77.195
  C      -24.645      71.360     -76.093
  O      -23.583      71.963     -75.939
  N      -25.666      71.478     -75.183
  C      -26.774      70.831     -75.364
  N      -27.746      70.991     -74.425
  C      -27.014      69.944     -76.518
  C      -26.007      69.833     -77.383
  O      -27.461      67.643     -81.573
  O      -25.811      65.674     -81.637
  H      -20.727      69.142     -77.558
  H      -26.358      65.379     -82.389
  H      -27.955      69.429     -76.631
  H      -26.101      69.202     -78.262
  H      -23.238      71.398     -78.209
  H      -22.686      69.154     -76.583
  H      -23.939      67.704     -78.001
  H      -22.547      69.093     -80.362
  H      -27.534      71.601     -73.643
  H      -24.698      68.501     -81.519
  H      -28.675      70.610     -74.506
  H      -23.740      67.080     -81.050
  P      -21.985      65.873     -77.741
  C      -21.554      65.499     -75.225
  O      -21.362      66.363     -76.343
  O      -21.320      64.689     -78.359
  O      -23.524      65.618     -77.375
  H      -24.022      65.248     -78.144
  H      -21.098      65.930     -74.359
  H      -21.107      64.548     -75.428
  H      -22.602      65.370     -75.050

 6  7  8  9  10  11  12  13  14  15  16  26  30  31  32  33  35 0
 6-311+G(2d,p)
 ****
 37  38 0
 6-311+G(2d,p)
 ****
 1  2  3  4  5  17  18  19  20  21  22  23  24  25 0
 3-21G
 ****
 27  28  29  34  36  39  40  41  42  43  44  45  46 0
 3-21G
 ****


