%nproc=1
%NoSave
%Mem=1900MB
#P OB98/GEN NMR

erre ene a

0 1
  C      -96.465     178.073     -36.883
  O      -96.330     176.991     -37.790
  P      -95.189     177.079     -38.910
  C      -96.942     176.401     -40.705
  O      -95.650     176.177     -40.158
  C      -96.939     176.172     -42.218
  O      -96.075     177.147     -42.858
  C      -96.435     174.780     -42.628
  O      -97.137     174.348     -43.803
  C      -94.996     175.030     -43.027
  O      -94.517     174.024     -43.918
  C      -95.109     176.425     -43.645
  N      -90.488     176.543     -45.701
  C      -91.613     175.854     -46.108
  N      -91.456     175.014     -47.159
  N      -92.784     175.978     -45.546
  C      -92.790     176.844     -44.503
  C      -91.745     177.597     -44.013
  C      -90.451     177.440     -44.639
  O      -89.409     178.000     -44.308
  N      -92.143     178.392     -42.968
  C      -93.417     178.092     -42.793
  N      -93.844     177.132     -43.676
  O      -93.989     176.235     -38.264
  O      -94.748     178.463     -39.247
  H      -95.117     174.017     -44.688
  H      -93.292     176.842     -37.947
  H      -89.604     176.406     -46.158
  H      -94.060     178.516     -42.031
  H      -95.488     176.377     -44.675
  H      -94.356     175.037     -42.135
  H      -90.565     174.823     -47.591
  H      -96.528     174.016     -41.848
  H      -92.252     174.465     -47.451
  H      -97.954     176.343     -42.600
  H      -97.243     177.430     -40.499
  H      -97.664     175.733     -40.223
  P      -97.514     172.788     -43.864
  C      -97.334     173.022     -46.450
  O      -98.064     172.523     -45.345
  O      -98.827     172.691     -42.949
  O      -96.431     171.877     -43.395
  H      -98.920     171.792     -42.583
  H      -96.988     172.181     -47.057
  H      -96.468     173.619     -46.143
  H      -97.992     173.652     -47.058
  H      -97.263     177.869     -36.200
  H      -96.681     178.969     -37.426
  H      -95.553     178.197     -36.338

 3  4  5  6  7  8  9  10  11  12  23  26  30  31 0
 6-311+G(2d,p)
 ****
 33  35  36  37  38 0
 6-311+G(2d,p)
 ****
 1  2  13  14  15  16  17  18  19  20  21  22  24  25 0
 3-21G
 ****
 27  28  29  32  34  39  40  41  42  43  44  45  46  47  48  49 0
 3-21G
 ****


