%nproc=1
%NoSave
%Mem=1900MB
#P OB98/GEN NMR

erre ene a

0 1
  C      607.261    -611.077     357.979
  O      607.772    -610.192     358.962
  P      608.303    -608.728     358.587
  C      606.275    -607.442     359.512
  O      607.654    -607.743     359.680
  C      605.755    -606.548     360.645
  O      605.872    -607.261     361.916
  C      606.504    -605.206     360.791
  O      605.527    -604.249     361.232
  C      607.499    -605.495     361.904
  O      608.001    -604.316     362.518
  C      606.654    -606.420     362.806
  N      607.487    -607.202     363.708
  C      608.151    -606.498     364.727
  O      608.073    -605.267     364.784
  N      608.925    -607.199     365.629
  C      609.095    -608.472     365.455
  N      609.876    -609.118     366.375
  C      608.530    -609.228     364.329
  C      607.732    -608.538     363.505
  O      608.098    -608.320     357.166
  O      609.845    -608.758     359.034
  H      607.300    -603.956     363.107
  H      610.387    -609.257     358.356
  H      608.754    -610.284     364.194
  H      607.263    -609.010     362.654
  H      605.945    -605.829     363.406
  H      608.349    -606.050     361.488
  H      606.976    -604.865     359.863
  H      604.689    -606.362     360.471
  H      610.233    -608.561     367.156
  H      605.720    -608.393     359.534
  H      610.010    -610.114     366.391
  H      606.100    -606.972     358.541
  P      604.791    -603.261     360.201
  C      602.521    -603.366     361.386
  O      603.612    -602.541     361.004
  O      604.391    -603.890     358.908
  O      605.864    -602.083     359.973
  H      605.613    -601.575     359.167
  H      601.930    -602.846     362.138
  H      602.868    -604.318     361.786
  H      601.889    -603.547     360.502
  H      606.965    -611.994     358.444
  H      608.018    -611.276     357.250
  H      606.415    -610.629     357.502

 3  4  5  6  7  8  9  10  11  12  13  23  27  28  29  30  32 0
 6-311+G(2d,p)
 ****
 34  35 0
 6-311+G(2d,p)
 ****
 1  2  14  15  16  17  18  19  20  21  22  24  25  26 0
 3-21G
 ****
 31  33  36  37  38  39  40  41  42  43  44  45  46 0
 3-21G
 ****


