%nproc=1
%NoSave
%Mem=1900MB
#P OB98/GEN NMR

erre ene a

0 1
  C      483.143     392.354    -333.128
  O      482.096     393.297    -333.237
  H      483.200     392.013    -332.090
  H      484.100     392.807    -333.398
  H      482.944     391.490    -333.770
  P      481.854     394.011    -334.649
  C      479.597     393.111    -335.540
  O      481.016     392.979    -335.541
  C      479.001     392.507    -336.810
  O      479.563     393.136    -337.977
  C      479.264     391.013    -336.974
  O      478.433     390.265    -336.108
  C      478.984     390.845    -338.456
  O      477.573     390.794    -338.714
  C      479.599     392.145    -339.031
  N      480.956     391.975    -339.540
  C      481.084     391.221    -340.711
  O      480.088     390.732    -341.249
  N      482.339     391.028    -341.230
  C      483.370     391.571    -340.662
  N      484.584     391.351    -341.228
  C      483.275     392.401    -339.445
  C      482.052     392.551    -338.937
  O      483.070     394.567    -335.325
  O      480.786     395.157    -334.323
  H      477.187     391.563    -338.249
  H      481.237     396.003    -334.141
  H      484.155     392.845    -339.011
  H      481.892     393.146    -338.045
  H      478.976     392.533    -339.849
  H      479.414     389.925    -338.857
  H      480.322     390.796    -336.795
  H      477.922     392.720    -336.809
  H      484.598     390.786    -342.076
  H      479.374     394.184    -335.493
  H      485.423     391.847    -340.970
  H      479.164     392.630    -334.655
  P      478.588     388.674    -335.973
  C      478.573     388.612    -333.402
  O      479.346     388.427    -334.577
  O      479.197     387.993    -337.149
  O      477.100     388.180    -335.647
  H      476.551     388.175    -336.472
  H      479.180     388.421    -332.542
  H      477.744     387.936    -333.411
  H      478.212     389.619    -333.367

 6  7  8  9  10  11  12  13  14  15  16  26  30  31  32  33  35 0
 6-311+G(2d,p)
 ****
 37  38 0
 6-311+G(2d,p)
 ****
 1  2  3  4  5  17  18  19  20  21  22  23  24  25 0
 3-21G
 ****
 27  28  29  34  36  39  40  41  42  43  44  45  46 0
 3-21G
 ****


