%nproc=1
%NoSave
%Mem=1900MB
#P OB98/GEN NMR

erre ene a

0 1
  C       94.624    -250.336    -285.219
  O       94.646    -248.900    -285.289
  P       93.781    -248.043    -284.235
  C       94.521    -246.958    -281.967
  O       94.782    -247.154    -283.352
  C       95.786    -246.489    -281.245
  O       96.757    -247.563    -281.189
  C       96.516    -245.337    -281.928
  O       95.869    -244.097    -281.706
  C       97.890    -245.432    -281.288
  O       97.909    -244.778    -280.008
  C       98.063    -246.958    -281.126
  N       98.973    -247.536    -282.115
  C      100.325    -247.503    -281.806
  O      100.780    -246.969    -280.797
  N      101.165    -248.082    -282.729
  C      100.785    -248.618    -283.939
  O      101.581    -249.100    -284.723
  C       99.341    -248.545    -284.239
  C       98.517    -248.016    -283.329
  O       93.321    -249.170    -283.191
  O       92.595    -247.333    -284.801
  H       98.693    -245.132    -279.533
  H       92.483    -248.905    -282.780
  H      102.139    -248.097    -282.516
  H       99.007    -248.933    -285.191
  H       97.451    -247.959    -283.543
  H       98.456    -247.190    -280.121
  H       98.678    -244.960    -281.900
  H       96.600    -245.535    -282.997
  H       95.508    -246.221    -280.218
  H       94.180    -247.904    -281.531
  H       93.725    -246.211    -281.863
  P       95.368    -243.303    -283.008
  C       93.984    -241.081    -283.035
  O       95.071    -241.807    -282.501
  O       93.923    -243.955    -283.230
  O       96.300    -243.425    -284.170
  H       93.497    -244.203    -282.386
  H       93.152    -241.730    -283.291
  H       94.322    -240.541    -283.938
  H       93.654    -240.340    -282.286
  H       95.249    -250.740    -285.987
  H       93.621    -250.684    -285.355
  H       94.985    -250.652    -284.263

 3  4  5  6  7  8  9  10  11  12  13  23  28  29  30  31  32 0
 6-311+G(2d,p)
 ****
 33  34 0
 6-311+G(2d,p)
 ****
 1  2  14  15  16  17  18  19  20  21  22  24  25  26 0
 3-21G
 ****
 27  35  36  37  38  39  40  41  42  43  44  45 0
 3-21G
 ****


