%nproc=1
%NoSave
%Mem=1900MB
#P OB98/GEN NMR

erre ene a

0 1
  C     -493.911     441.782     -40.028
  O     -494.423     442.899     -39.329
  H     -493.970     441.982     -41.100
  H     -494.503     440.890     -39.806
  H     -492.866     441.614     -39.755
  P     -494.525     442.770     -37.735
  C     -493.294     445.048     -37.525
  O     -493.366     443.690     -37.115
  C     -491.832     445.439     -37.731
  O     -491.245     444.609     -38.763
  C     -491.635     446.868     -38.207
  O     -491.733     447.818     -37.155
  C     -490.227     446.793     -38.778
  O     -489.231     446.957     -37.763
  C     -490.187     445.373     -39.372
  N     -490.292     445.394     -40.828
  C     -489.198     444.875     -41.521
  O     -488.198     444.427     -40.965
  N     -489.278     444.933     -42.885
  C     -490.294     445.485     -43.608
  O     -490.276     445.554     -44.829
  C     -491.415     446.030     -42.823
  C     -491.364     445.966     -41.490
  O     -494.019     441.276     -37.453
  O     -495.886     443.015     -37.169
  H     -494.776     440.709     -37.220
  H     -489.214     446.116     -37.260
  H     -488.497     444.564     -43.408
  H     -492.239     446.480     -43.361
  H     -492.168     446.369     -40.891
  H     -489.246     444.874     -39.106
  H     -490.064     447.570     -39.523
  H     -492.336     447.101     -39.018
  H     -491.285     445.262     -36.793
  H     -493.722     445.691     -36.750
  H     -493.868     445.177     -38.444
  P     -492.141     449.324     -37.549
  C     -494.302     449.420     -36.049
  O     -493.729     449.408     -37.350
  O     -491.930     449.279     -39.134
  O     -491.339     450.355     -36.827
  H     -492.047     448.380     -39.492
  H     -495.367     449.480     -36.129
  H     -493.937     450.267     -35.506
  H     -494.033     448.523     -35.532

 6  7  8  9  10  11  12  13  14  15  16  27  31  32  33  34  35 0
 6-311+G(2d,p)
 ****
 36  37 0
 6-311+G(2d,p)
 ****
 1  2  3  4  5  17  18  19  20  21  22  23  24  25 0
 3-21G
 ****
 26  28  29  30  38  39  40  41  42  43  44  45 0
 3-21G
 ****


