%nproc=1
%NoSave
%Mem=1900MB
#P OB98/GEN NMR

erre ene a

0 1
  C      -43.177    -501.570    -897.980
  O      -42.102    -502.470    -897.810
  H      -44.060    -501.969    -897.480
  H      -43.406    -501.461    -899.050
  H      -42.935    -500.592    -897.560
  P      -40.718    -502.084    -898.510
  C      -38.264    -502.940    -898.310
  O      -39.577    -502.918    -897.750
  C      -37.299    -503.646    -897.370
  O      -37.077    -502.859    -896.160
  C      -37.746    -505.034    -896.900
  O      -37.460    -506.013    -897.880
  C      -36.945    -505.195    -895.630
  O      -35.607    -505.622    -895.920
  C      -36.966    -503.778    -895.040
  N      -38.485    -504.406    -890.260
  C      -37.284    -504.704    -890.860
  N      -36.348    -505.341    -890.090
  N      -37.003    -504.464    -892.110
  C      -38.024    -503.870    -892.780
  C      -39.256    -503.485    -892.290
  C      -39.533    -503.747    -890.890
  O      -40.555    -503.439    -890.280
  N      -40.023    -502.888    -893.260
  C      -39.268    -502.951    -894.350
  N      -38.049    -503.533    -894.110
  O      -40.454    -500.577    -898.020
  O      -40.700    -502.184    -900.000
  H      -35.240    -505.067    -896.640
  H      -39.960    -500.094    -898.700
  H      -38.627    -504.610    -889.290
  H      -39.544    -502.560    -895.320
  H      -36.039    -503.533    -894.510
  H      -37.376    -505.952    -894.980
  H      -36.619    -505.838    -889.260
  H      -38.834    -505.022    -896.670
  H      -35.481    -505.595    -890.530
  H      -36.333    -503.720    -897.890
  H      -37.933    -501.903    -898.460
  H      -38.298    -503.454    -899.280
  P      -37.516    -507.564    -897.440
  C      -36.637    -509.657    -898.710
  O      -37.361    -508.420    -898.780
  O      -39.065    -507.773    -897.050
  O      -36.604    -507.935    -896.310
  H      -39.156    -508.572    -896.510
  H      -36.617    -510.114    -899.677
  H      -37.118    -510.313    -898.015
  H      -35.636    -509.466    -898.385

 6  7  8  9  10  11  12  13  14  15  26  29  33  34 0
 6-311+G(2d,p)
 ****
 36  38  39  40  41 0
 6-311+G(2d,p)
 ****
 1  2  3  4  5  16  17  18  19  20  21  22  23  24  25 0
 3-21G
 ****
 27  28  30  31  32  35  37  42  43  44  45  46  47 0
 3-21G
 ****
 48  49 0
 3-21G
 ****


