%nproc=1
%NoSave
%Mem=1900MB
#P OB98/GEN NMR

erre ene a

0 1
  C       11.751    -438.640      24.653
  O       12.194    -437.764      23.614
  P       13.789    -437.612      23.456
  C       14.057    -435.638      25.124
  O       14.357    -437.002      24.829
  C       15.058    -435.060      26.128
  O       14.867    -433.617      26.264
  C       14.938    -435.666      27.538
  O       16.266    -435.719      28.076
  C       14.096    -434.625      28.261
  O       14.140    -434.760      29.674
  C       14.699    -433.353      27.686
  N       13.559    -429.637      31.001
  C       14.419    -430.692      31.065
  N       14.659    -431.637      30.145
  C       13.919    -431.422      29.041
  C       13.012    -430.397      28.819
  C       12.843    -429.468      29.861
  N       11.967    -428.404      29.801
  N       12.424    -430.526      27.562
  C       12.925    -431.651      27.080
  N       13.893    -432.173      27.897
  O       13.948    -436.413      22.400
  O       14.465    -438.862      23.004
  H       13.658    -434.018      30.093
  H       14.123    -436.766      21.509
  H       14.970    -430.775      32.002
  H       12.629    -432.124      26.154
  H       15.696    -433.137      28.101
  H       13.048    -434.733      27.958
  H       14.502    -436.674      27.547
  H       16.074    -435.220      25.735
  H       13.046    -435.558      25.528
  H       11.910    -427.798      30.607
  H       11.402    -428.255      28.983
  H       14.058    -435.062      24.184
  P       16.971    -437.147      28.262
  C       16.349    -437.141      30.756
  O       16.209    -437.812      29.517
  O       18.358    -436.706      28.931
  O       17.114    -437.979      27.029
  H       18.216    -436.112      29.693
  H       15.726    -437.647      31.501
  H       16.018    -436.103      30.660
  H       17.394    -437.173      31.091
  H       10.681    -438.665      24.667
  H       12.112    -438.286      25.596
  H       12.128    -439.625      24.474

 3  4  5  6  7  8  9  10  11  12  22  25  29  30  31  32 0
 6-311+G(2d,p)
 ****
 33  36  37 0
 6-311+G(2d,p)
 ****
 1  2  13  14  15  16  17  18  19  20  21  23  24  26 0
 3-21G
 ****
 27  28  34  35  38  39  40  41  42  43  44  45  46  47  48 0
 3-21G
 ****


