%nproc=1
%NoSave
%Mem=1900MB
#P OB98/GEN NMR

erre ene a

0 1
  C     1032.116    -263.518    -416.056
  O     1033.284    -263.392    -416.859
  P     1033.779    -264.705    -417.644
  C     1035.925    -263.405    -418.354
  O     1035.389    -264.579    -417.775
  C     1037.175    -262.961    -417.595
  O     1036.833    -262.549    -416.260
  C     1038.229    -264.060    -417.405
  O     1039.043    -264.211    -418.554
  C     1039.040    -263.499    -416.256
  O     1039.966    -262.490    -416.717
  C     1037.961    -262.824    -415.389
  N     1039.339    -264.848    -410.944
  C     1039.963    -263.853    -411.705
  N     1041.124    -263.379    -411.234
  N     1039.456    -263.383    -412.808
  C     1038.285    -263.947    -413.158
  C     1037.583    -264.914    -412.484
  C     1038.136    -265.460    -411.263
  O     1037.669    -266.365    -410.577
  N     1036.396    -265.242    -413.151
  C     1036.403    -264.460    -414.206
  N     1037.538    -263.693    -414.293
  O     1033.288    -264.447    -419.140
  O     1033.261    -266.005    -417.116
  H     1040.567    -262.914    -417.353
  H     1033.306    -265.264    -419.654
  H     1039.794    -265.189    -410.093
  H     1035.614    -264.430    -414.961
  H     1038.299    -261.873    -414.955
  H     1039.644    -264.251    -415.721
  H     1041.585    -263.754    -410.431
  H     1037.764    -265.010    -417.109
  H     1041.627    -262.713    -411.812
  H     1037.614    -262.094    -418.114
  H     1035.169    -262.601    -418.342
  H     1036.183    -263.611    -419.397
  P     1039.916    -265.566    -418.628
  C     1041.785    -264.197    -419.804
  O     1041.455    -265.063    -418.744
  O     1039.574    -266.121    -420.107
  O     1039.627    -266.562    -417.549
  H     1039.695    -267.112    -420.121
  H     1042.755    -263.753    -419.596
  H     1041.055    -263.381    -419.887
  H     1041.845    -264.723    -420.748
  H     1031.898    -262.578    -415.593
  H     1032.280    -264.258    -415.301
  H     1031.291    -263.812    -416.670

 3  4  5  6  7  8  9  10  11  12  23  26  30  31 0
 6-311+G(2d,p)
 ****
 33  35  36  37  38 0
 6-311+G(2d,p)
 ****
 1  2  13  14  15  16  17  18  19  20  21  22  24  25 0
 3-21G
 ****
 27  28  29  32  34  39  40  41  42  43  44  45  46  47  48  49 0
 3-21G
 ****


