%nproc=1
%NoSave
%Mem=1900MB
#P OB98/GEN NMR

erre ene a

0 1
  C       13.707     640.737    -244.938
  O       13.595     639.338    -244.783
  H       14.577     640.953    -245.560
  H       13.847     641.217    -243.965
  H       12.819     641.143    -245.429
  P       12.321     638.739    -244.020
  C       13.766     637.427    -242.336
  O       12.780     637.352    -243.362
  C       14.458     636.074    -242.183
  O       13.563     635.118    -241.571
  C       14.892     635.448    -243.505
  O       16.048     636.083    -244.004
  C       15.080     634.000    -243.077
  O       16.336     633.819    -242.403
  C       13.904     633.815    -242.088
  N       12.740     633.168    -242.701
  C       12.444     631.885    -242.247
  O       13.100     631.304    -241.388
  N       11.378     631.273    -242.854
  C       10.664     631.767    -243.908
  O        9.872     631.100    -244.565
  C       10.978     633.153    -244.292
  C       11.994     633.775    -243.690
  O       11.059     638.678    -244.817
  O       12.160     639.705    -242.747
  H       11.447     640.344    -242.915
  H       17.031     634.011    -243.062
  H       11.183     630.320    -242.572
  H       10.387     633.610    -245.081
  H       12.264     634.787    -243.980
  H       14.217     633.206    -241.229
  H       15.070     633.311    -243.923
  H       14.074     635.497    -244.233
  H       15.317     636.204    -241.514
  H       13.267     637.688    -241.397
  H       14.491     638.207    -242.591
  P       16.156     636.512    -245.543
  C       18.541     635.674    -245.978
  O       17.700     636.813    -245.871
  O       15.211     637.587    -245.973
  O       15.877     635.152    -246.352
  H       15.165     635.307    -247.001
  H       19.540     635.988    -246.197
  H       18.186     635.041    -246.764
  H       18.531     635.135    -245.054

 6  7  8  9  10  11  12  13  14  15  16  27  31  32  33  34  35 0
 6-311+G(2d,p)
 ****
 36  37 0
 6-311+G(2d,p)
 ****
 1  2  3  4  5  17  18  19  20  21  22  23  24  25 0
 3-21G
 ****
 26  28  29  30  38  39  40  41  42  43  44  45 0
 3-21G
 ****


