%nproc=1
%NoSave
%Mem=1900MB
#P OB98/GEN NMR

erre ene a

0 1
  C     -111.578     119.269     -73.327
  O     -111.463     120.287     -74.307
  P     -110.027     120.756     -74.850
  C     -110.744     120.442     -77.298
  O     -109.861     120.023     -76.265
  C     -110.361     119.779     -78.618
  O     -110.612     118.358     -78.504
  C     -111.151     120.229     -79.845
  O     -110.664     121.412     -80.461
  C     -110.922     119.046     -80.778
  O     -109.615     119.143     -81.374
  C     -110.978     117.858     -79.815
  N     -114.875     116.018     -82.571
  C     -113.673     116.523     -82.928
  N     -112.697     117.010     -82.135
  C     -113.041     116.901     -80.842
  C     -114.225     116.405     -80.324
  C     -115.174     115.946     -81.254
  N     -116.389     115.411     -80.885
  N     -114.221     116.473     -78.945
  C     -113.049     116.989     -78.640
  N     -112.297     117.256     -79.750
  O     -108.910     120.567     -73.884
  O     -110.242     122.286     -75.260
  H     -109.637     119.905     -81.984
  H     -109.377     122.730     -75.351
  H     -113.469     116.542     -83.996
  H     -112.706     117.188     -77.636
  H     -110.261     117.071     -80.075
  H     -111.644     119.005     -81.599
  H     -112.222     120.309     -79.624
  H     -109.284     119.919     -78.775
  H     -110.658     121.530     -77.404
  H     -116.948     114.989     -81.610
  H     -116.542     115.208     -79.908
  H     -111.774     120.204     -77.021
  P     -111.713     122.275     -81.322
  C     -111.771     124.506     -79.957
  O     -112.396     123.285     -80.281
  O     -112.653     121.467     -82.144
  O     -110.761     123.227     -82.188
  H     -110.264     123.889     -81.681
  H     -112.466     125.111     -79.367
  H     -111.507     125.062     -80.859
  H     -110.874     124.322     -79.360
  H     -112.611     119.105     -73.102
  H     -111.063     119.569     -72.439
  H     -111.147     118.364     -73.701

 3  4  5  6  7  8  9  10  11  12  22  25  29  30  31  32 0
 6-311+G(2d,p)
 ****
 33  36  37 0
 6-311+G(2d,p)
 ****
 1  2  13  14  15  16  17  18  19  20  21  23  24  26 0
 3-21G
 ****
 27  28  34  35  38  39  40  41  42  43  44  45  46  47  48 0
 3-21G
 ****


