%nproc=1
%NoSave
%Mem=1900MB
#P OB98/GEN NMR

erre ene a

0 1
  C      575.345      35.719     682.896
  O      575.874      36.546     681.875
  P      575.400      38.081     681.848
  C      573.934      37.681     679.728
  O      573.995      38.121     681.085
  C      573.253      38.742     678.863
  O      571.930      39.015     679.364
  C      573.968      40.084     678.828
  O      575.120      40.040     678.012
  C      572.849      40.985     678.319
  O      572.716      40.834     676.891
  C      571.610      40.393     679.027
  N      569.443      44.640     680.906
  C      569.678      44.226     679.642
  N      570.275      43.099     679.218
  C      570.653      42.341     680.273
  C      570.506      42.637     681.609
  C      569.873      43.843     681.923
  N      569.642      44.265     683.215
  N      571.037      41.637     682.397
  C      571.483      40.744     681.535
  N      571.262      41.118     680.234
  O      576.408      38.756     680.799
  O      575.430      38.768     683.177
  H      571.924      41.338     676.621
  H      576.608      39.675     681.055
  H      569.326      44.899     678.855
  H      571.972      39.812     681.805
  H      570.723      40.380     678.388
  H      573.015      42.041     678.526
  H      574.252      40.390     679.846
  H      573.161      38.334     677.847
  H      573.355      36.753     679.671
  H      569.315      45.205     683.355
  H      570.083      43.742     683.969
  H      574.951      37.476     679.378
  P      576.343      41.000     678.388
  C      575.426      42.472     676.504
  O      575.891      42.444     677.839
  O      577.456      40.550     677.333
  O      576.752      40.948     679.831
  H      577.100      40.513     676.426
  H      575.099      43.494     676.278
  H      574.569      41.794     676.379
  H      576.220      42.194     675.815
  H      575.742      34.730     682.796
  H      574.279      35.686     682.811
  H      575.615      36.116     683.852

 3  4  5  6  7  8  9  10  11  12  22  25  29  30  31  32 0
 6-311+G(2d,p)
 ****
 33  36  37 0
 6-311+G(2d,p)
 ****
 1  2  13  14  15  16  17  18  19  20  21  23  24  26 0
 3-21G
 ****
 27  28  34  35  38  39  40  41  42  43  44  45  46  47  48 0
 3-21G
 ****


