%nproc=1
%NoSave
%Mem=1900MB
#P OB98/GEN NMR

erre ene a

0 1
  C      109.798     242.336     116.777
  O      110.692     241.690     115.893
  H      110.263     243.257     117.138
  H      109.579     241.692     117.634
  H      108.870     242.588     116.257
  P      110.228     240.257     115.333
  C      108.800     241.137     113.335
  O      108.815     240.567     114.634
  C      107.365     241.455     112.929
  O      107.337     242.181     111.682
  C      106.494     240.224     112.703
  O      106.031     239.644     113.911
  C      105.362     240.835     111.899
  O      104.492     241.574     112.776
  C      106.140     241.786     110.960
  N      106.492     241.167     109.681
  C      106.332     241.958     108.536
  O      105.906     243.107     108.623
  N      106.630     241.413     107.310
  C      107.058     240.192     107.232
  N      107.325     239.700     105.991
  C      107.258     239.331     108.412
  C      106.958     239.875     109.589
  O      109.796     239.458     116.652
  O      111.213     239.539     114.474
  H      104.401     241.050     113.593
  H      109.375     238.602     116.401
  H      107.608     238.315     108.295
  H      107.077     239.300     110.501
  H      105.563     242.697     110.761
  H      104.748     240.091     111.388
  H      107.003     239.480     112.080
  H      106.934     242.111     113.699
  H      107.119     240.291     105.197
  H      109.240     240.418     112.637
  H      107.486     238.716     105.818
  H      109.393     242.057     113.321
  P      105.601     238.098     113.876
  C      107.610     237.096     115.182
  O      106.952     237.232     113.931
  O      105.099     237.896     112.371
  O      104.554     237.712     114.874
  H      104.319     237.311     112.335
  H      108.488     236.496     115.060
  H      106.951     236.626     115.882
  H      107.887     238.063     115.547

 6  7  8  9  10  11  12  13  14  15  16  26  30  31  32  33  35 0
 6-311+G(2d,p)
 ****
 37  38 0
 6-311+G(2d,p)
 ****
 1  2  3  4  5  17  18  19  20  21  22  23  24  25 0
 3-21G
 ****
 27  28  29  34  36  39  40  41  42  43  44  45  46 0
 3-21G
 ****


