%nproc=1
%NoSave
%Mem=1900MB
#P OB98/GEN NMR

erre ene a

0 1
  C      -42.965    -441.469     188.451
  O      -43.021    -440.512     187.411
  H      -43.877    -442.070     188.426
  H      -42.902    -440.961     189.416
  H      -42.102    -442.129     188.319
  P      -41.690    -439.676     187.104
  C      -41.768    -439.604     184.501
  O      -41.165    -440.161     185.662
  C      -40.873    -438.505     183.928
  O      -39.727    -439.127     183.284
  C      -41.566    -437.620     182.876
  O      -41.082    -436.277     183.019
  C      -41.068    -438.199     181.559
  O      -41.132    -437.283     180.475
  C      -39.641    -438.592     181.944
  N      -39.060    -439.567     181.023
  C      -37.698    -439.833     181.146
  O      -36.970    -439.372     182.018
  N      -37.172    -440.672     180.197
  C      -37.848    -441.236     179.152
  O      -37.314    -441.966     178.322
  C      -39.284    -440.911     179.073
  C      -39.817    -440.105     179.992
  O      -40.625    -440.314     188.117
  O      -41.807    -438.195     187.254
  H      -40.638    -439.839     188.967
  H      -40.780    -437.740     179.684
  H      -36.191    -440.871     180.270
  H      -39.851    -441.336     178.254
  H      -40.858    -439.825     179.951
  H      -38.999    -437.706     181.986
  H      -41.658    -439.077     181.294
  H      -42.664    -437.625     182.938
  H      -40.482    -437.895     184.753
  H      -42.739    -439.171     184.774
  H      -41.928    -440.395     183.760
  P      -41.653    -435.413     184.239
  C      -39.554    -435.321     185.804
  O      -40.829    -435.886     185.531
  O      -43.099    -436.062     184.429
  O      -41.648    -433.945     183.967
  H      -43.108    -437.017     184.258
  H      -39.157    -435.753     186.699
  H      -39.653    -434.263     185.932
  H      -38.893    -435.521     184.987

 6  7  8  9  10  11  12  13  14  15  16  27  31  32  33  34  35 0
 6-311+G(2d,p)
 ****
 36  37 0
 6-311+G(2d,p)
 ****
 1  2  3  4  5  17  18  19  20  21  22  23  24  25 0
 3-21G
 ****
 26  28  29  30  38  39  40  41  42  43  44  45 0
 3-21G
 ****


