%nproc=1
%NoSave
%Mem=1900MB
#P OB98/GEN NMR

erre ene a

0 1
  C     -365.565     862.635    -365.462
  O     -364.514     862.951    -366.366
  P     -364.611     862.349    -367.849
  C     -364.480     859.987    -368.890
  O     -364.535     860.749    -367.691
  C     -363.546     858.795    -368.727
  O     -362.166     859.283    -368.688
  C     -363.777     857.967    -367.451
  O     -363.715     856.565    -367.766
  C     -362.560     858.304    -366.582
  O     -362.276     857.267    -365.649
  C     -361.493     858.511    -367.661
  N     -356.500     858.055    -367.070
  C     -357.377     857.263    -367.797
  N     -356.861     856.173    -368.400
  N     -358.657     857.526    -367.909
  C     -359.034     858.670    -367.279
  C     -358.256     859.526    -366.547
  C     -356.859     859.208    -366.377
  O     -356.042     859.805    -365.675
  N     -358.994     860.599    -366.079
  C     -360.217     860.371    -366.528
  N     -360.300     859.192    -367.222
  O     -363.180     862.733    -368.473
  O     -365.726     862.873    -368.678
  H     -361.838     856.559    -366.155
  H     -363.311     863.245    -369.298
  H     -355.518     857.794    -366.993
  H     -361.081     861.017    -366.349
  H     -361.202     857.550    -368.098
  H     -362.767     859.232    -366.035
  H     -355.878     855.927    -368.374
  H     -364.730     858.189    -366.937
  H     -357.479     855.602    -368.947
  H     -363.622     858.159    -369.618
  H     -364.119     860.627    -369.710
  H     -365.490     859.638    -369.144
  P     -365.096     855.776    -367.694
  C     -366.313     854.387    -365.847
  O     -365.230     855.216    -366.195
  O     -364.814     854.452    -368.562
  O     -366.278     856.547    -368.219
  H     -365.648     854.087    -368.926
  H     -366.879     854.059    -366.724
  H     -366.972     854.928    -365.177
  H     -365.936     853.497    -365.331
  H     -365.374     863.098    -364.517
  H     -365.619     861.574    -365.335
  H     -366.493     862.995    -365.854

 3  4  5  6  7  8  9  10  11  12  23  26  30  31  33  0
 6-311+G(2d,p)
 ****
 35  36  37  38 0
 6-311+G(2d,p)
 ****
 1  2  13  14  15  16  17  18  19  20  21  22  24  25  27  28  29 0
 3-21G
 ****
 32  34  39  40  41  42  43  44  45  46  47  48  49 0
 3-21G
 ****


