%nproc=1
%NoSave
%Mem=1900MB
#P OB98/GEN NMR

erre ene a

0 1
  C     -145.212    -754.816      80.941
  O     -144.161    -755.075      80.019
  P     -143.324    -753.808      79.497
  C     -140.796    -753.311      79.098
  O     -141.792    -754.277      79.398
  C     -139.426    -753.780      79.612
  O     -139.350    -753.576      81.035
  C     -139.150    -755.261      79.388
  O     -138.800    -755.524      78.035
  C     -138.006    -755.464      80.383
  O     -136.769    -754.982      79.833
  C     -138.445    -754.579      81.564
  N     -138.119    -756.379      86.368
  C     -137.243    -755.697      85.595
  N     -137.403    -755.269      84.312
  C     -138.602    -755.624      83.849
  C     -139.591    -756.340      84.501
  C     -139.329    -756.718      85.829
  N     -140.220    -757.406      86.605
  N     -140.705    -756.513      83.699
  C     -140.382    -755.911      82.564
  N     -139.135    -755.327      82.612
  O     -143.322    -752.827      80.759
  O     -143.871    -753.141      78.266
  H     -136.500    -755.606      79.126
  H     -143.343    -751.889      80.484
  H     -136.291    -755.459      86.056
  H     -141.023    -755.861      81.685
  H     -137.600    -754.063      82.038
  H     -137.852    -756.522      80.651
  H     -140.015    -755.865      79.675
  H     -138.658    -753.161      79.138
  H     -141.047    -752.363      79.572
  H     -139.885    -757.790      87.490
  H     -141.042    -757.792      86.162
  H     -140.767    -753.153      78.011
  P     -138.137    -756.949      77.715
  C     -137.407    -757.960      75.453
  O     -138.325    -757.106      76.115
  O     -139.237    -757.965      78.295
  O     -136.749    -757.123      78.222
  H     -140.140    -757.731      78.004
  H     -137.681    -758.017      74.409
  H     -137.436    -758.964      75.889
  H     -136.389    -757.551      75.535
  H     -145.687    -755.737      81.208
  H     -145.929    -754.162      80.490
  H     -144.811    -754.354      81.819

 3  4  5  6  7  8  9  10  11  12  22  25  29  30  31  32 0
 6-311+G(2d,p)
 ****
 33  36  37 0
 6-311+G(2d,p)
 ****
 1  2  13  14  15  16  17  18  19  20  21  23  24  26 0
 3-21G
 ****
 27  28  34  35  38  39  40  41  42  43  44  45  46  47  48 0
 3-21G
 ****


