%nproc=1
%NoSave
%Mem=1900MB
#P OB98/GEN NMR

erre ene a

0 1
  C     -379.824     -82.559      -6.948
  O     -378.630     -83.210      -6.568
  H     -379.872     -81.592      -6.442
  H     -380.689     -83.153      -6.646
  H     -379.849     -82.389      -8.028
  P     -378.211     -84.560      -7.323
  C     -376.870     -83.388      -9.187
  O     -378.005     -84.183      -8.867
  C     -376.388     -83.716     -10.597
  O     -375.365     -82.781     -11.003
  C     -375.761     -85.099     -10.733
  O     -376.756     -86.104     -10.753
  C     -374.991     -84.933     -12.035
  O     -375.865     -85.072     -13.166
  C     -374.480     -83.477     -11.907
  N     -373.094     -83.393     -11.451
  C     -372.124     -83.252     -12.440
  O     -372.388     -83.237     -13.640
  N     -370.832     -83.148     -11.997
  C     -370.418     -83.255     -10.702
  O     -369.239     -83.208     -10.363
  C     -371.482     -83.437      -9.704
  C     -372.750     -83.496     -10.118
  O     -379.091     -85.741      -7.078
  O     -376.716     -84.826      -6.815
  H     -376.346     -85.915     -13.045
  H     -376.722     -85.504      -6.114
  H     -370.115     -83.057     -12.698
  H     -371.192     -83.531      -8.667
  H     -373.549     -83.637      -9.398
  H     -374.552     -82.965     -12.875
  H     -374.202     -85.676     -12.156
  H     -375.045     -85.273      -9.923
  H     -377.237     -83.605     -11.284
  H     -376.073     -83.607      -8.468
  H     -377.143     -82.333      -9.107
  P     -376.366     -87.637     -10.997
  C     -376.420     -88.060      -8.472
  O     -375.651     -88.172      -9.663
  O     -375.614     -87.910     -12.257
  O     -377.771     -88.400     -10.987
  H     -378.014     -88.660     -11.898
  H     -375.857     -88.442      -7.646
  H     -377.324     -88.622      -8.577
  H     -376.658     -87.032      -8.296

 6  7  8  9  10  11  12  13  14  15  16  26  31  32  33  34  35 0
 6-311+G(2d,p)
 ****
 36  37 0
 6-311+G(2d,p)
 ****
 1  2  3  4  5  17  18  19  20  21  22  23  24  25 0
 3-21G
 ****
 27  28  29  30  38  39  40  41  42  43  44  45 0
 3-21G
 ****


