%nproc=1
%NoSave
%Mem=1900MB
#P OB98/GEN NMR

erre ene a

0 1
  C       94.064     139.175     -61.875
  O       93.821     138.400     -60.698
  P       92.822     139.028     -59.614
  C       91.435     138.011     -57.668
  O       92.633     137.963     -58.431
  C       91.246     136.701     -56.901
  O       90.982     135.594     -57.791
  C       92.474     136.287     -56.101
  O       92.609     137.075     -54.930
  C       92.166     134.817     -55.845
  O       91.231     134.680     -54.760
  C       91.495     134.395     -57.162
  N       92.916     129.856     -59.048
  C       91.977     130.203     -58.140
  N       91.662     131.435     -57.690
  C       92.423     132.369     -58.284
  C       93.415     132.166     -59.229
  C       93.659     130.837     -59.611
  N       94.626     130.482     -60.524
  N       93.981     133.368     -59.605
  C       93.357     134.276     -58.882
  N       92.398     133.722     -58.077
  O       91.409     139.019     -60.364
  O       93.204     140.403     -59.173
  H       91.103     133.722     -54.605
  H       91.152     139.929     -60.602
  H       91.404     129.383     -57.718
  H       93.563     135.338     -58.905
  H       90.644     133.724     -56.998
  H       93.053     134.230     -55.587
  H       93.377     136.379     -56.717
  H       90.387     136.821     -56.228
  H       90.576     138.183     -58.322
  H       94.790     129.501     -60.684
  H       95.243     131.196     -60.885
  H       91.486     138.865     -56.984
  P       93.776     138.174     -54.900
  C       93.851     140.500     -53.814
  O       93.305     139.195     -53.751
  O       93.482     138.994     -56.238
  O       95.155     137.626     -54.757
  H       92.536     139.200     -56.336
  H       93.425     141.096     -53.002
  H       93.600     140.970     -54.768
  H       94.936     140.459     -53.689
  H       94.743     138.650     -62.514
  H       94.490     140.117     -61.600
  H       93.141     139.338     -62.392

 3  4  5  6  7  8  9  10  11  12  22  25  29  30  31  32 0
 6-311+G(2d,p)
 ****
 33  36  37 0
 6-311+G(2d,p)
 ****
 1  2  13  14  15  16  17  18  19  20  21  23  24  26 0
 3-21G
 ****
 27  28  34  35  38  39  40  41  42  43  44  45  46  47  48 0
 3-21G
 ****


