%nproc=1
%NoSave
%Mem=1900MB
#P OB98/GEN NMR

erre ene a

0 1
  C      818.643    -541.754     841.460
  O      817.455    -542.528     841.646
  P      817.294    -543.842     840.741
  C      815.465    -542.788     839.179
  O      816.778    -543.340     839.315
  C      814.910    -543.115     837.799
  O      815.695    -542.452     836.764
  C      814.934    -544.590     837.446
  O      813.934    -545.321     838.131
  C      814.764    -544.531     835.923
  O      813.373    -544.352     835.594
  C      815.564    -543.252     835.561
  N      816.859    -543.539     834.977
  C      817.199    -542.785     833.857
  O      816.460    -541.954     833.353
  N      818.422    -543.058     833.294
  C      819.314    -544.002     833.738
  O      820.402    -544.192     833.210
  C      818.887    -544.804     834.898
  C      817.695    -544.539     835.464
  O      815.991    -544.525     841.418
  O      818.519    -544.707     840.747
  H      815.347    -543.861     841.722
  H      812.916    -545.171     835.854
  H      818.692    -542.510     832.500
  H      819.543    -545.574     835.243
  H      817.357    -545.128     836.310
  H      814.989    -542.650     834.854
  H      815.106    -545.446     835.420
  H      815.931    -545.003     837.675
  H      813.870    -542.742     837.741
  H      815.505    -541.702     839.301
  H      814.830    -543.202     839.970
  P      814.340    -545.972     839.533
  C      815.891    -547.799     838.472
  O      815.762    -546.677     839.327
  O      813.310    -547.210     839.614
  O      814.266    -545.020     840.689
  H      813.227    -547.688     838.779
  H      816.927    -547.911     838.188
  H      815.272    -547.700     837.563
  H      815.578    -548.700     839.006
  H      818.627    -540.911     842.119
  H      818.692    -541.413     840.447
  H      819.500    -542.358     841.675

 3  4  5  6  7  8  9  10  11  12  13  24  28  29  30  31  32 0
 6-311+G(2d,p)
 ****
 33  34 0
 6-311+G(2d,p)
 ****
 1  2  14  15  16  17  18  19  20  21  22  23  25  26  27 0
 3-21G
 ****
 35  36  37  38  39  40  41  42  43  44  45 0
 3-21G
 ****


