%nproc=1
%NoSave
%Mem=1900MB
#P OB98/GEN NMR

erre ene a

0 1
  C     -206.132     236.507    1004.276
  O     -206.837     235.290    1004.133
  H     -206.572     237.074    1005.098
  H     -206.207     237.102    1003.359
  H     -205.080     236.304    1004.506
  P     -206.417     234.347    1002.910
  C     -204.968     232.779    1004.390
  O     -206.089     232.900    1003.523
  C     -205.304     231.796    1005.510
  O     -206.358     232.343    1006.342
  C     -205.819     230.449    1005.033
  O     -204.779     229.588    1004.581
  C     -206.499     229.934    1006.281
  O     -205.568     229.289    1007.166
  C     -207.071     231.219    1006.910
  N     -208.515     231.325    1006.711
  C     -209.300     230.653    1007.640
  O     -208.842     230.008    1008.581
  N     -210.653     230.720    1007.433
  C     -211.270     231.334    1006.377
  O     -212.493     231.308    1006.222
  C     -210.386     232.011    1005.417
  C     -209.070     231.973    1005.622
  O     -204.982     234.912    1002.482
  O     -207.375     234.336    1001.762
  H     -205.062     235.413    1001.646
  H     -205.208     228.532    1006.670
  H     -211.242     230.245    1008.098
  H     -210.842     232.500    1004.573
  H     -208.389     232.456    1004.927
  H     -206.872     231.238    1007.992
  H     -207.268     229.203    1006.032
  H     -206.574     230.593    1004.245
  H     -204.408     231.663    1006.139
  H     -204.735     233.753    1004.831
  H     -204.102     232.436    1003.812
  P     -205.169     228.417    1003.559
  C     -204.025     229.652    1001.531
  O     -204.095     228.502    1002.366
  O     -206.526     229.004    1002.940
  O     -205.296     227.087    1004.219
  H     -206.540     229.972    1002.962
  H     -203.253     229.517    1000.803
  H     -203.807     230.513    1002.127
  H     -204.963     229.790    1001.035

 6  7  8  9  10  11  12  13  14  15  16  27  31  32  33  34  35 0
 6-311+G(2d,p)
 ****
 36  37 0
 6-311+G(2d,p)
 ****
 1  2  3  4  5  17  18  19  20  21  22  23  24  25 0
 3-21G
 ****
 26  28  29  30  38  39  40  41  42  43  44  45 0
 3-21G
 ****


