%nproc=1
%NoSave
%Mem=1900MB
#P OB98/GEN NMR

erre ene a

0 1
  C     -361.207    -381.587     389.268
  O     -361.991    -382.590     388.640
  P     -361.331    -384.031     388.414
  C     -361.887    -384.292     385.876
  O     -362.123    -384.725     387.211
  C     -363.113    -384.580     385.012
  O     -363.333    -386.004     384.902
  C     -364.419    -384.014     385.570
  O     -364.523    -382.618     385.311
  C     -365.452    -384.849     384.850
  O     -365.731    -384.314     383.536
  C     -364.754    -386.223     384.748
  N     -365.260    -387.183     385.714
  C     -366.535    -387.682     385.454
  O     -367.221    -387.320     384.487
  N     -367.023    -388.582     386.371
  C     -366.397    -388.980     387.520
  O     -366.916    -389.745     388.334
  C     -365.065    -388.394     387.752
  C     -364.571    -387.536     386.862
  O     -361.785    -384.870     389.704
  O     -359.851    -384.012     388.261
  H     -366.546    -384.750     383.217
  H     -361.071    -385.481     389.972
  H     -367.937    -388.972     386.192
  H     -364.542    -388.682     388.655
  H     -363.592    -387.084     387.019
  H     -364.884    -386.646     383.727
  H     -366.406    -384.871     385.383
  H     -364.471    -384.203     386.651
  H     -362.929    -384.184     384.000
  H     -361.011    -384.818     385.477
  H     -361.664    -383.223     385.883
  P     -365.253    -381.718     386.424
  C     -367.654    -380.927     385.770
  O     -366.260    -380.781     385.607
  O     -364.051    -380.754     386.881
  O     -365.843    -382.525     387.537
  H     -363.444    -380.561     386.133
  H     -367.919    -381.208     386.807
  H     -368.013    -381.703     385.085
  H     -368.148    -379.986     385.526
  H     -361.779    -380.686     389.349
  H     -360.330    -381.402     388.683
  H     -360.921    -381.917     390.245

 3  4  5  6  7  8  9  10  11  12  13  23  28  29  30  31  32 0
 6-311+G(2d,p)
 ****
 33  34 0
 6-311+G(2d,p)
 ****
 1  2  14  15  16  17  18  19  20  21  22  24  25  26 0
 3-21G
 ****
 27  35  36  37  38  39  40  41  42  43  44  45 0
 3-21G
 ****


