%nproc=1
%NoSave
%Mem=1900MB
#P OB98/GEN NMR

erre ene a

0 1
  C      470.730     -27.009      37.576
  O      470.922     -26.542      38.901
  H      470.851     -28.094      37.566
  H      471.486     -26.565      36.918
  H      469.729     -26.756      37.223
  P      470.559     -25.007      39.176
  C      472.733     -24.398      40.516
  O      471.322     -24.573      40.525
  C      473.254     -24.244      41.944
  O      472.511     -23.231      42.654
  C      473.079     -25.482      42.802
  O      473.987     -26.519      42.460
  C      473.333     -24.905      44.190
  O      474.732     -24.846      44.496
  C      472.735     -23.484      44.062
  N      471.523     -23.335      44.853
  C      471.670     -23.576      46.226
  O      472.777     -23.868      46.684
  N      470.559     -23.518      47.025
  C      469.397     -23.269      46.498
  N      468.329     -23.254      47.345
  C      469.196     -23.009      45.061
  C      470.294     -23.059      44.299
  O      469.029     -25.086      39.631
  O      470.811     -24.092      38.028
  H      475.001     -25.760      44.732
  H      468.859     -25.752      40.314
  H      468.211     -22.799      44.676
  H      470.240     -22.884      43.228
  H      473.461     -22.732      44.406
  H      472.862     -25.515      44.968
  H      472.039     -25.837      42.764
  H      474.305     -23.935      41.896
  H      468.503     -23.485      48.317
  H      473.008     -23.522      39.918
  H      467.374     -23.149      47.037
  H      473.178     -25.276      40.038
  P      473.487     -27.837      41.695
  C      474.410     -29.643      43.277
  O      474.555     -28.993      42.019
  O      473.193     -27.667      40.241
  O      472.216     -28.303      42.558
  H      472.413     -28.497      43.497
  H      475.170     -30.389      43.383
  H      473.447     -30.106      43.330
  H      474.504     -28.923      44.063

 6  7  8  9  10  11  12  13  14  15  16  26  30  31  32  33  35 0
 6-311+G(2d,p)
 ****
 37  38 0
 6-311+G(2d,p)
 ****
 1  2  3  4  5  17  18  19  20  21  22  23  24  25 0
 3-21G
 ****
 27  28  29  34  36  39  40  41  42  43  44  45  46 0
 3-21G
 ****


