%nproc=1
%NoSave
%Mem=1900MB
#P OB98/GEN NMR

erre ene a

0 1
  C      271.717     400.466     187.121
  O      270.492     400.346     187.824
  P      270.254     401.367     189.048
  C      267.746     401.250     188.340
  O      268.695     401.304     189.391
  C      266.384     401.736     188.855
  O      266.551     402.890     189.688
  C      265.410     402.138     187.750
  O      264.774     401.000     187.206
  C      264.474     403.077     188.500
  O      263.486     402.330     189.239
  C      265.434     403.803     189.454
  N      265.565     408.801     190.225
  C      264.818     407.812     190.863
  N      264.032     408.228     191.877
  N      264.854     406.547     190.527
  C      265.673     406.288     189.490
  C      266.451     407.179     188.766
  C      266.447     408.564     189.181
  O      267.154     409.449     188.721
  N      267.129     406.547     187.765
  C      266.799     405.268     187.895
  N      265.927     405.067     188.938
  O      270.442     402.799     188.365
  O      271.159     401.171     190.224
  H      262.831     401.954     188.628
  H      271.348     403.148     188.531
  H      265.515     409.752     190.532
  H      267.161     404.471     187.282
  H      264.973     404.011     190.425
  H      263.915     403.733     187.827
  H      263.941     409.186     192.185
  H      265.932     402.701     186.960
  H      263.477     407.526     192.350
  H      265.944     400.931     189.467
  H      267.653     400.219     187.994
  H      268.087     401.873     187.512
  P      263.860     401.204     185.902
  C      264.843     399.239     184.529
  O      263.713     399.779     185.185
  O      264.803     402.047     184.916
  O      262.575     401.927     186.157
  H      264.258     402.682     184.411
  H      264.780     398.149     184.567
  H      265.781     399.561     184.994
  H      264.840     399.558     183.484
  H      271.752     399.737     186.338
  H      272.532     400.305     187.795
  H      271.791     401.446     186.699

 3  4  5  6  7  8  9  10  11  12  23  26  30  31 0
 6-311+G(2d,p)
 ****
 33  35  36  37  38 0
 6-311+G(2d,p)
 ****
 1  2  13  14  15  16  17  18  19  20  21  22  24  25 0
 3-21G
 ****
 27  28  29  32  34  39  40  41  42  43  44  45  46  47  48  49 0
 3-21G
 ****


