%nproc=1
%NoSave
%Mem=1900MB
#P OB98/GEN NMR

erre ene a

0 1
  C      181.935     -95.381     189.797
  O      182.454     -96.290     190.744
  H      182.479     -94.435     189.879
  H      180.875     -95.193     189.997
  H      182.061     -95.773     188.784
  P      181.784     -97.750     190.790
  C      179.947     -97.062     192.494
  O      180.239     -97.520     191.180
  C      179.003     -98.032     193.201
  O      178.630     -97.474     194.494
  C      177.704     -98.314     192.428
  O      177.351     -99.691     192.606
  C      176.687     -97.446     193.144
  O      175.352     -97.916     192.960
  C      177.197     -97.539     194.582
  N      172.952     -95.601     196.489
  C      173.153     -96.731     195.710
  N      172.062     -97.455     195.388
  N      174.333     -97.115     195.286
  C      175.340     -96.308     195.703
  C      175.271     -95.165     196.465
  C      173.959     -94.741     196.912
  O      173.714     -93.740     197.582
  N      176.517     -94.614     196.647
  C      177.340     -95.425     196.003
  N      176.672     -96.472     195.420
  O      182.403     -98.401     192.116
  O      182.010     -98.599     189.588
  H      174.742     -97.223     193.295
  H      182.476     -99.373     192.027
  H      172.023     -95.347     196.777
  H      178.414     -95.299     195.922
  H      176.918     -98.487     195.064
  H      176.741     -96.413     192.776
  H      171.123     -97.240     195.708
  H      177.774     -98.084     191.364
  H      172.186     -98.292     194.826
  H      179.547     -98.964     193.406
  H      179.477     -96.071     192.427
  H      180.884     -96.974     193.057
  P      177.327    -100.627     191.299
  C      175.092     -99.919     190.174
  O      176.514     -99.868     190.135
  O      176.343    -101.818     191.731
  O      178.670    -101.149     190.908
  H      176.855    -102.634     191.873
  H      174.693     -99.375     189.344
  H      174.744     -99.483     191.087
  H      174.770    -100.938     190.120

 6  7  8  9  10  11  12  13  14  15  26  29  33  34 0
 6-311+G(2d,p)
 ****
 36  38  39  40  41 0
 6-311+G(2d,p)
 ****
 1  2  3  4  5  16  17  18  19  20  21  22  23  24  25 0
 3-21G
 ****
 27  28  30  31  32  35  37  42  43  44  45  46  47 0
 3-21G
 ****
 48  49 0
 3-21G
 ****


