%nproc=1
%NoSave
%Mem=1900MB
#P OB98/GEN NMR

erre ene a

0 1
  C     -105.003    -750.083     950.638
  O     -106.276    -750.621     951.037
  P     -106.571    -750.831     952.605
  C     -108.094    -748.739     952.985
  O     -106.855    -749.383     953.264
  C     -109.130    -749.072     954.067
  O     -108.829    -748.396     955.302
  C     -110.534    -748.635     953.702
  O     -111.172    -749.586     952.859
  C     -111.190    -748.631     955.076
  O     -111.559    -749.969     955.459
  C     -110.094    -748.090     955.973
  N     -112.717    -744.314     958.211
  C     -112.949    -745.646     958.133
  N     -112.198    -746.582     957.504
  C     -111.130    -746.029     956.925
  C     -110.769    -744.681     956.914
  C     -111.626    -743.801     957.607
  N     -111.404    -742.444     957.678
  N     -109.609    -744.498     956.205
  C     -109.260    -745.699     955.809
  N     -110.154    -746.654     956.201
  O     -105.142    -751.226     953.184
  O     -107.596    -751.876     952.883
  H     -112.160    -750.311     954.768
  H     -105.242    -751.854     953.915
  H     -113.840    -746.014     958.651
  H     -108.359    -745.925     955.231
  H     -110.069    -748.575     956.951
  H     -112.122    -748.032     955.087
  H     -110.542    -747.626     953.263
  H     -109.109    -750.145     954.237
  H     -108.450    -749.060     952.004
  H     -112.037    -741.878     958.210
  H     -110.565    -742.053     957.250
  H     -107.909    -747.658     952.913
  P     -111.852    -749.041     951.507
  C     -110.030    -749.915     949.836
  O     -110.609    -748.793     950.487
  O     -112.307    -747.554     951.906
  O     -112.974    -749.878     950.984
  H     -113.100    -747.307     951.387
  H     -109.456    -749.548     948.991
  H     -110.804    -750.597     949.457
  H     -109.365    -750.439     950.516
  H     -104.967    -750.007     949.571
  H     -104.221    -750.730     950.976
  H     -104.875    -749.112     951.070

 3  4  5  6  7  8  9  10  11  12  22  25  29  30  31  32 0
 6-311+G(2d,p)
 ****
 33  36  37 0
 6-311+G(2d,p)
 ****
 1  2  13  14  15  16  17  18  19  20  21  23  24  26 0
 3-21G
 ****
 27  28  34  35  38  39  40  41  42  43  44  45  46  47  48 0
 3-21G
 ****


