%nproc=1
%NoSave
%Mem=1900MB
#P OB98/GEN NMR

erre ene a

0 1
  C      172.818     -39.232      63.485
  O      173.121     -39.563      64.826
  H      171.819     -38.790      63.449
  H      172.829     -40.129      62.861
  H      173.541     -38.507      63.103
  P      174.513     -40.325      65.073
  C      173.118     -42.528      64.992
  O      174.237     -41.802      64.506
  C      173.584     -43.846      65.601
  O      172.473     -44.555      66.192
  C      174.194     -44.815      64.594
  O      175.533     -44.490      64.256
  C      174.109     -46.111      65.377
  O      175.141     -46.139      66.380
  C      172.711     -45.978      66.023
  N      171.647     -46.586      65.221
  C      171.270     -47.890      65.563
  O      171.826     -48.481      66.487
  N      170.291     -48.510      64.825
  C      169.728     -47.882      63.839
  N      168.775     -48.549      63.135
  C      170.083     -46.503      63.457
  C      171.038     -45.923      64.179
  O      174.538     -40.559      66.657
  O      175.731     -39.658      64.530
  H      175.990     -46.232      65.910
  H      175.303     -41.136      66.897
  H      169.594     -46.025      62.621
  H      171.353     -44.911      63.954
  H      172.696     -46.431      67.022
  H      174.241     -46.998      64.755
  H      173.576     -44.908      63.695
  H      174.290     -43.614      66.409
  H      168.597     -49.513      63.380
  H      172.439     -42.717      64.153
  H      168.416     -48.212      62.250
  H      172.592     -41.943      65.752
  P      176.017     -44.796      62.756
  C      177.482     -46.722      63.696
  O      176.526     -46.317      62.728
  O      177.371     -43.953      62.636
  O      175.033     -44.430      61.688
  H      177.457     -43.548      61.752
  H      177.721     -47.755      63.551
  H      177.077     -46.584      64.677
  H      178.368     -46.132      63.590

 6  7  8  9  10  11  12  13  14  15  16  26  30  31  32  33  35 0
 6-311+G(2d,p)
 ****
 37  38 0
 6-311+G(2d,p)
 ****
 1  2  3  4  5  17  18  19  20  21  22  23  24  25 0
 3-21G
 ****
 27  28  29  34  36  39  40  41  42  43  44  45  46 0
 3-21G
 ****


