%nproc=1
%NoSave
%Mem=1900MB
#P OB98/GEN NMR

erre ene a

0 1
  C     -849.121     335.456      58.324
  O     -849.986     335.475      59.443
  H     -848.266     336.109      58.530
  H     -849.640     335.828      57.437
  H     -848.759     334.442      58.145
  P     -851.360     334.658      59.292
  C     -850.311     332.487      60.288
  O     -850.878     333.133      59.154
  C     -850.230     330.984      60.037
  O     -851.555     330.411      59.928
  C     -849.520     330.609      58.742
  O     -848.108     330.672      58.847
  C     -850.007     329.182      58.566
  O     -849.303     328.314      59.477
  C     -851.492     329.325      58.972
  N     -852.375     329.590      57.834
  C     -852.928     328.471      57.194
  O     -852.662     327.334      57.581
  N     -853.743     328.671      56.110
  C     -854.002     329.873      55.703
  N     -854.810     330.008      54.613
  C     -853.455     331.078      56.353
  C     -852.661     330.863      57.401
  O     -851.842     335.002      57.803
  O     -852.388     334.900      60.347
  H     -849.667     327.418      59.348
  H     -852.623     334.443      57.568
  H     -853.690     332.062      55.973
  H     -852.218     331.699      57.930
  H     -851.846     328.421      59.483
  H     -849.843     328.789      57.560
  H     -849.877     331.206      57.896
  H     -849.744     330.522      60.909
  H     -855.118     329.164      54.148
  H     -850.944     332.689      61.154
  H     -854.911     330.886      54.122
  H     -849.308     332.875      60.477
  P     -847.335     331.709      57.895
  C     -845.856     332.633      59.822
  O     -846.834     332.919      58.831
  O     -848.515     332.372      57.047
  O     -846.286     331.099      57.017
  H     -848.247     332.522      56.122
  H     -845.623     333.527      60.362
  H     -844.970     332.259      59.352
  H     -846.238     331.897      60.498

 6  7  8  9  10  11  12  13  14  15  16  26  30  31  32  33  35 0
 6-311+G(2d,p)
 ****
 37  38 0
 6-311+G(2d,p)
 ****
 1  2  3  4  5  17  18  19  20  21  22  23  24  25 0
 3-21G
 ****
 27  28  29  34  36  39  40  41  42  43  44  45  46 0
 3-21G
 ****


