%nproc=1
%NoSave
%Mem=1900MB
#P OB98/GEN NMR

erre ene a

0 1
  C      -53.854     349.060      93.959
  O      -53.922     349.765      95.178
  H      -53.015     349.448      93.377
  H      -54.777     349.218      93.394
  H      -53.704     347.990      94.122
  P      -54.738     349.122      96.394
  C      -56.602     350.870      96.030
  O      -56.290     349.495      96.206
  C      -57.687     351.073      94.972
  O      -57.150     350.778      93.664
  C      -58.887     350.145      95.176
  O      -59.878     350.650      96.056
  C      -59.432     350.016      93.756
  O      -60.370     351.062      93.459
  C      -58.179     350.154      92.883
  N      -58.525     346.613      89.212
  C      -59.345     347.700      89.448
  N      -60.404     347.830      88.620
  N      -59.144     348.557      90.413
  C      -58.103     348.239      91.215
  C      -57.234     347.178      91.094
  C      -57.418     346.275      89.979
  O      -56.711     345.308      89.720
  N      -56.321     347.154      92.122
  C      -56.697     348.145      92.906
  N      -57.721     348.882      92.356
  O      -54.315     350.031      97.647
  O      -54.455     347.678      96.670
  H      -61.053     351.062      94.158
  H      -54.329     349.493      98.459
  H      -58.712     346.004      88.437
  H      -56.236     348.402      93.852
  H      -58.364     350.806      92.021
  H      -59.964     349.071      93.627
  H      -60.654     347.155      87.917
  H      -58.561     349.156      95.507
  H      -61.132     348.500      88.873
  H      -57.992     352.127      94.963
  H      -55.680     351.361      95.718
  H      -56.907     351.317      96.981
  P      -60.195     349.920      97.441
  C      -62.731     349.806      96.777
  O      -61.592     349.162      97.306
  O      -60.527     351.138      98.424
  O      -59.101     349.052      97.974
  H      -59.749     351.361      98.968
  H      -63.557     349.125      96.774
  H      -62.528     350.124      95.776
  H      -62.972     350.657      97.380

 6  7  8  9  10  11  12  13  14  15  26  29  33  34 0
 6-311+G(2d,p)
 ****
 36  38  39  40  41 0
 6-311+G(2d,p)
 ****
 1  2  3  4  5  16  17  18  19  20  21  22  23  24  25 0
 3-21G
 ****
 27  28  30  31  32  35  37  42  43  44  45  46  47 0
 3-21G
 ****
 48  49 0
 3-21G
 ****


