%nproc=1
%NoSave
%Mem=1900MB
#P OB98/GEN NMR

erre ene a

0 1
  C      -20.943     382.499    -270.934
  O      -21.525     381.217    -271.044
  H      -19.905     382.447    -271.277
  H      -20.954     382.819    -269.890
  H      -21.480     383.226    -271.554
  P      -23.121     381.121    -270.897
  C      -23.349     379.448    -272.869
  O      -23.562     379.689    -271.486
  C      -23.755     378.020    -273.225
  O      -22.704     377.107    -272.808
  C      -25.060     377.561    -272.553
  O      -25.803     376.756    -273.481
  C      -24.582     376.692    -271.403
  O      -25.555     375.725    -270.998
  C      -23.311     376.088    -271.993
  N      -21.606     372.068    -269.472
  C      -22.470     372.147    -270.552
  N      -22.964     370.976    -271.021
  N      -22.820     373.275    -271.113
  C      -22.225     374.359    -270.556
  C      -21.358     374.410    -269.486
  C      -21.005     373.158    -268.853
  O      -20.262     373.020    -267.885
  N      -20.998     375.707    -269.200
  C      -21.643     376.430    -270.090
  N      -22.397     375.656    -270.944
  O      -23.652     382.159    -271.995
  O      -23.658     381.438    -269.539
  H      -26.339     376.222    -270.675
  H      -24.116     382.892    -271.555
  H      -21.381     371.168    -269.069
  H      -21.615     377.512    -270.166
  H      -23.515     375.219    -272.623
  H      -24.351     377.328    -270.535
  H      -22.699     370.076    -270.676
  H      -25.683     378.389    -272.212
  H      -23.564     371.013    -271.838
  H      -23.833     377.941    -274.320
  H      -22.283     379.589    -273.086
  H      -23.937     380.160    -273.456
  P      -27.227     377.333    -273.966
  C      -27.048     376.184    -276.281
  O      -27.811     376.346    -275.093
  O      -26.827     378.651    -274.776
  O      -28.160     377.644    -272.842
  H      -27.075     379.447    -274.272
  H      -27.551     375.505    -276.938
  H      -26.083     375.793    -276.035
  H      -26.936     377.132    -276.765

 6  7  8  9  10  11  12  13  14  15  26  29  33  34 0
 6-311+G(2d,p)
 ****
 36  38  39  40  41 0
 6-311+G(2d,p)
 ****
 1  2  3  4  5  16  17  18  19  20  21  22  23  24  25 0
 3-21G
 ****
 27  28  30  31  32  35  37  42  43  44  45  46  47 0
 3-21G
 ****
 48  49 0
 3-21G
 ****


