%nproc=1
%NoSave
%Mem=1900MB
#P OB98/GEN NMR

erre ene a

0 1
  C     -890.930     179.017    -504.286
  O     -892.080     178.193    -504.196
  H     -891.190     180.021    -503.922
  H     -890.600     179.099    -505.324
  H     -890.130     178.620    -503.664
  P     -891.980     176.684    -504.722
  C     -893.420     175.169    -503.197
  O     -893.390     175.980    -504.365
  C     -894.830     174.607    -502.977
  O     -895.630     175.670    -502.382
  C     -895.500     174.169    -504.287
  O     -896.010     172.830    -504.258
  C     -896.520     175.292    -504.568
  O     -897.630     174.916    -505.342
  C     -896.850     175.798    -503.159
  N     -897.310     177.183    -503.122
  C     -898.640     177.422    -503.515
  O     -899.450     176.535    -503.860
  N     -899.050     178.722    -503.503
  C     -898.280     179.804    -503.154
  O     -898.690     180.948    -503.141
  C     -896.880     179.498    -502.777
  C     -896.470     178.231    -502.788
  O     -890.770     175.918    -504.303
  O     -892.050     176.832    -506.323
  H     -898.280     175.632    -505.291
  H     -891.160     176.723    -506.697
  H     -900.000     178.907    -503.757
  H     -896.250     180.323    -502.510
  H     -895.460     177.970    -502.502
  H     -897.610     175.184    -502.691
  H     -895.990     176.092    -505.126
  H     -894.780     174.145    -505.101
  H     -894.780     173.791    -502.258
  H     -893.120     175.784    -502.345
  H     -892.710     174.342    -503.323
  P     -895.320     171.583    -504.956
  C     -894.970     170.012    -502.891
  O     -895.670     170.268    -504.096
  O     -893.880     171.768    -505.365
  O     -896.200     171.391    -506.318
  H     -895.580     171.057    -506.989
  H     -895.330     169.103    -502.456
  H     -895.127     170.821    -502.208
  H     -893.925     169.919    -503.099

 6  7  8  9  10  11  12  13  14  15  16  26  31  32  33  34  35 0
 6-311+G(2d,p)
 ****
 36  37 0
 6-311+G(2d,p)
 ****
 1  2  3  4  5  17  18  19  20  21  22  23  24  25 0
 3-21G
 ****
 27  28  29  30  38  39  40  41  42  43  44  45 0
 3-21G
 ****


