%nproc=1
%NoSave
%Mem=1900MB
#P OB98/GEN NMR

erre ene a

0 1
  C      566.770     295.211     585.402
  O      566.384     294.726     586.677
  H      567.212     294.390     584.835
  H      567.504     296.012     585.507
  H      565.886     295.580     584.867
  P      565.805     295.808     587.712
  C      568.169     295.960     588.812
  O      567.114     296.645     588.152
  C      568.930     296.923     589.731
  O      570.081     297.459     589.050
  C      568.116     298.138     590.171
  O      567.192     297.850     591.206
  C      569.238     299.034     590.649
  O      569.732     298.567     591.922
  C      570.285     298.814     589.532
  N      570.149     299.786     588.444
  C      570.379     301.121     588.767
  O      570.646     301.464     589.921
  N      570.240     302.087     587.785
  C      569.935     301.727     586.564
  N      569.813     302.702     585.638
  C      569.712     300.318     586.184
  C      569.833     299.415     587.155
  O      565.492     294.941     589.024
  O      564.669     296.635     587.230
  H      570.485     299.144     592.153
  H      565.267     295.538     589.774
  H      569.450     300.069     585.157
  H      569.696     298.364     586.939
  H      571.303     298.878     589.934
  H      568.939     300.074     590.793
  H      567.611     298.619     589.327
  H      569.296     296.346     590.588
  H      569.917     303.670     585.951
  H      568.849     295.555     588.046
  H      569.435     302.542     584.721
  H      567.769     295.121     589.410
  P      565.631     297.922     590.852
  C      565.485     300.289     591.948
  O      565.240     299.476     590.796
  O      564.915     297.408     592.187
  O      565.227     297.123     589.654
  H      564.104     296.916     591.980
  H      565.171     301.292     591.750
  H      566.531     300.281     592.174
  H      564.937     299.902     592.781

 6  7  8  9  10  11  12  13  14  15  16  26  30  31  32  33  35 0
 6-311+G(2d,p)
 ****
 37  38 0
 6-311+G(2d,p)
 ****
 1  2  3  4  5  17  18  19  20  21  22  23  24  25 0
 3-21G
 ****
 27  28  29  34  36  39  40  41  42  43  44  45  46 0
 3-21G
 ****


