%nproc=1
%NoSave
%Mem=1900MB
#P OB98/GEN NMR

erre ene a

0 1
  C       93.184    -265.737    -147.839
  O       91.911    -265.950    -147.235
  P       91.515    -267.453    -146.841
  C       91.383    -268.492    -149.246
  O       92.051    -268.423    -148.002
  C       91.201    -269.955    -149.695
  O       90.475    -269.960    -150.956
  C       92.496    -270.718    -149.971
  O       92.215    -272.123    -149.957
  C       92.818    -270.282    -151.386
  O       93.744    -271.166    -152.012
  C       91.414    -270.210    -152.035
  N       91.293    -269.156    -153.066
  C       91.715    -269.448    -154.366
  O       92.177    -270.531    -154.710
  N       91.611    -268.428    -155.275
  C       91.106    -267.188    -155.029
  O       91.124    -266.281    -155.856
  C       90.554    -266.976    -153.685
  C       90.675    -267.947    -152.780
  O       89.925    -267.481    -147.007
  O       91.944    -267.845    -145.463
  H       93.705    -270.975    -152.980
  H       89.493    -267.474    -146.132
  H       91.973    -268.602    -156.200
  H       90.083    -266.024    -153.476
  H       90.293    -267.805    -151.772
  H       91.151    -271.166    -152.514
  H       93.274    -269.292    -151.375
  H       93.314    -270.493    -149.280
  H       90.592    -270.486    -148.958
  H       91.941    -267.927    -150.000
  H       90.399    -268.015    -149.163
  P       92.634    -272.959    -148.651
  C       95.154    -272.943    -149.167
  O       94.132    -272.506    -148.289
  O       92.400    -274.430    -148.718
  O       91.771    -272.266    -147.489
  H       91.712    -272.863    -146.725
  H       95.967    -272.206    -149.152
  H       94.787    -273.040    -150.195
  H       95.543    -273.903    -148.823
  H       93.311    -264.695    -148.046
  H       93.243    -266.291    -148.752
  H       93.954    -266.065    -147.173

 3  4  5  6  7  8  9  10  11  12  13  23  28  29  30  31  32 0
 6-311+G(2d,p)
 ****
 33  34 0
 6-311+G(2d,p)
 ****
 1  2  14  15  16  17  18  19  20  21  22  24  25  26  27 0
 3-21G
 ****
 35  36  37  38  39  40  41  42  43  44  45 0
 3-21G
 ****


