%nproc=1
%NoSave
%Mem=1900MB
#P OB98/GEN NMR

erre ene a

0 1
  C     -614.908    -135.169     355.620
  O     -615.554    -135.244     354.368
  H     -615.508    -134.545     356.287
  H     -613.925    -134.704     355.495
  H     -614.791    -136.158     356.074
  P     -615.163    -136.425     353.367
  C     -613.178    -137.025     351.822
  O     -613.773    -136.033     352.654
  C     -612.500    -136.401     350.597
  O     -611.649    -135.310     351.014
  C     -611.613    -137.398     349.846
  O     -612.297    -138.173     348.881
  C     -610.589    -136.474     349.188
  O     -611.047    -136.012     347.910
  C     -610.487    -135.304     350.175
  N     -605.523    -134.145     350.607
  C     -606.339    -134.062     349.492
  N     -605.748    -133.654     348.349
  N     -607.614    -134.371     349.511
  C     -608.039    -134.854     350.693
  C     -607.315    -135.003     351.866
  C     -605.922    -134.591     351.862
  O     -605.167    -134.626     352.820
  N     -608.076    -135.572     352.858
  C     -609.229    -135.843     352.270
  N     -609.274    -135.351     350.980
  O     -616.219    -136.266     352.165
  O     -615.216    -137.809     353.944
  H     -611.941    -135.629     348.028
  H     -616.412    -137.142     351.781
  H     -604.559    -133.873     350.543
  H     -610.067    -136.344     352.732
  H     -610.478    -134.343     349.653
  H     -609.648    -136.999     349.018
  H     -604.755    -133.487     348.260
  H     -611.083    -138.050     350.544
  H     -606.259    -133.762     347.469
  H     -613.271    -135.971     349.934
  H     -613.983    -137.692     351.507
  H     -612.462    -137.623     352.393
  P     -611.774    -139.638     348.490
  C     -609.638    -140.608     347.304
  O     -610.449    -139.492     347.613
  O     -612.869    -140.150     347.432
  O     -611.617    -140.588     349.634
  H     -613.519    -140.727     347.869
  H     -608.806    -140.291     346.711
  H     -610.213    -141.326     346.757
  H     -609.281    -141.052     348.210

 6  7  8  9  10  11  12  13  14  15  26  29  33  34 0
 6-311+G(2d,p)
 ****
 36  38  39  40  41 0
 6-311+G(2d,p)
 ****
 1  2  3  4  5  16  17  18  19  20  21  22  23  24  25 0
 3-21G
 ****
 27  28  30  31  32  35  37  42  43  44  45  46  47 0
 3-21G
 ****
 48  49 0
 3-21G
 ****


