%nproc=1
%NoSave
%Mem=1900MB
#P OB98/GEN NMR

erre ene a

0 1
  C      720.907    -891.250    -265.419
  O      721.869    -890.800    -266.352
  H      720.613    -890.410    -264.772
  H      721.304    -892.060    -264.801
  H      720.009    -891.600    -265.952
  P      722.536    -891.880    -267.334
  C      721.212    -891.360    -269.490
  O      721.372    -892.220    -268.384
  C      720.648    -892.130    -270.691
  O      721.516    -893.220    -271.059
  C      719.286    -892.780    -270.442
  O      718.208    -891.850    -270.428
  C      719.230    -893.720    -271.634
  O      718.913    -892.980    -272.828
  C      720.691    -894.240    -271.664
  N      720.847    -895.520    -270.989
  C      720.786    -896.670    -271.786
  O      720.603    -896.590    -272.988
  N      720.897    -897.900    -271.179
  C      721.047    -897.980    -269.892
  N      721.118    -899.220    -269.342
  C      721.148    -896.790    -269.009
  C      721.034    -895.620    -269.628
  O      723.188    -893.050    -266.684
  O      723.540    -891.020    -268.238
  H      718.831    -893.610    -273.552
  H      723.979    -891.640    -268.866
  H      721.247    -896.910    -267.964
  H      721.073    -894.700    -269.046
  H      721.017    -894.360    -272.706
  H      718.467    -894.500    -271.526
  H      719.292    -893.380    -269.531
  H      720.604    -891.430    -271.553
  H      721.008    -900.000    -269.968
  H      722.181    -890.910    -269.725
  H      720.957    -899.360    -268.351
  H      720.511    -890.550    -269.239
  P      716.743    -892.400    -270.039
  C      717.105    -892.230    -267.466
  O      716.857    -893.070    -268.580
  O      716.580    -893.660    -271.012
  O      715.618    -891.400    -270.166
  H      716.097    -893.400    -271.826
  H      717.153    -892.822    -266.576
  H      716.315    -891.514    -267.376
  H      718.035    -891.719    -267.605

 6  7  8  9  10  11  12  13  14  15  16  26  30  31  32  33  35 0
 6-311+G(2d,p)
 ****
 37  38 0
 6-311+G(2d,p)
 ****
 1  2  3  4  5  17  18  19  20  21  22  23  24  25 0
 3-21G
 ****
 27  28  29  34  36  39  40  41  42  43  44  45  46 0
 3-21G
 ****


