%nproc=1
%NoSave
%Mem=1900MB
#P OB98/GEN NMR

erre ene a

0 1
  C       10.780     -84.584    -301.861
  O        9.467     -84.174    -302.198
  H       11.488     -84.166    -302.583
  H       11.024     -84.196    -300.869
  H       10.856     -85.673    -301.846
  P        8.786     -84.868    -303.475
  C        7.477     -82.756    -304.226
  O        7.405     -84.085    -303.734
  C        6.167     -82.015    -303.955
  O        6.154     -81.591    -302.558
  C        5.954     -80.763    -304.827
  O        4.565     -80.689    -305.179
  C        6.285     -79.620    -303.881
  O        5.640     -78.404    -304.243
  C        5.817     -80.192    -302.544
  N        4.920     -77.519    -298.311
  C        4.121     -78.298    -299.070
  N        4.455     -79.024    -300.158
  C        5.778     -78.942    -300.399
  C        6.719     -78.188    -299.709
  C        6.236     -77.436    -298.627
  N        7.027     -76.582    -297.888
  N        7.962     -78.319    -300.298
  C        7.772     -79.107    -301.336
  N        6.469     -79.508    -301.440
  O        8.314     -86.283    -302.885
  O        9.668     -85.027    -304.668
  H        4.698     -78.587    -304.421
  H        9.041     -86.929    -302.963
  H        3.079     -78.344    -298.773
  H        8.526     -79.394    -302.054
  H        4.733     -80.098    -302.404
  H        7.370     -79.451    -303.882
  H        6.566     -80.750    -305.734
  H        5.335     -82.721    -304.080
  H        7.649     -82.781    -305.308
  H        6.572     -76.001    -297.196
  H        7.983     -76.425    -298.177
  H        8.315     -82.237    -303.748
  P        4.203     -80.658    -306.742
  C        2.299     -79.006    -306.073
  O        2.715     -80.089    -306.906
  O        4.050     -82.209    -307.114
  O        5.238     -79.987    -307.590
  H        4.333     -82.363    -308.032
  H        1.287     -78.746    -306.305
  H        2.933     -78.161    -306.244
  H        2.365     -79.300    -305.046

 6  7  8  9  10  11  12  13  14  15  25  28  32  33  34  35 0
 6-311+G(2d,p)
 ****
 36  39  40 0
 6-311+G(2d,p)
 ****
 1  2  3  4  5  16  17  18  19  20  21  22  23  24 0
 3-21G
 ****
 26  27  29  30  31  37  38  41  42  43  44  45  46  47 0
 3-21G
 ****
 48 0
 3-21G
 ****


