%nproc=1
%NoSave
%Mem=1900MB
#P OB98/GEN NMR

erre ene a

0 1
  C     1090.160     104.051      30.595
  O     1091.172     104.069      29.605
  H     1089.937     103.025      30.894
  H     1090.520     104.604      31.473
  H     1089.253     104.539      30.220
  P     1090.845     103.321      28.227
  C     1092.878     101.754      28.636
  O     1091.489     101.853      28.363
  C     1093.243     100.298      28.936
  O     1092.708      99.910      30.230
  C     1092.675      99.298      27.933
  O     1093.466      99.205      26.764
  C     1092.754      98.014      28.752
  O     1094.125      97.542      28.777
  C     1092.335      98.501      30.150
  N     1088.694      95.395      31.962
  C     1090.028      95.235      31.816
  N     1090.933      96.111      31.317
  C     1090.325      97.263      30.958
  C     1088.987      97.560      31.034
  C     1088.144      96.569      31.579
  N     1086.777      96.734      31.716
  N     1088.730      98.834      30.523
  C     1089.923      99.287      30.177
  N     1090.917      98.368      30.404
  O     1091.809     104.048      27.166
  O     1089.414     103.345      27.796
  H     1094.191      96.925      29.530
  H     1091.475     103.898      26.259
  H     1090.426      94.275      32.134
  H     1090.107     100.261      29.762
  H     1092.865      97.988      30.953
  H     1092.143      97.208      28.340
  H     1091.623      99.500      27.703
  H     1094.335     100.221      28.989
  H     1093.116     102.371      29.506
  H     1086.243      95.904      31.932
  H     1086.340      97.545      31.290
  H     1093.444     102.113      27.762
  P     1092.995      98.166      25.628
  C     1095.144      96.803      26.138
  O     1093.735      96.780      25.971
  O     1093.744      98.678      24.320
  O     1091.513      98.090      25.442
  H     1093.265      98.440      23.520
  H     1095.493      95.816      26.361
  H     1095.397      97.461      26.943
  H     1095.604      97.149      25.236

 6  7  8  9  10  11  12  13  14  15  25  28  32  33  34  35 0
 6-311+G(2d,p)
 ****
 36  39  40 0
 6-311+G(2d,p)
 ****
 1  2  3  4  5  16  17  18  19  20  21  22  23  24 0
 3-21G
 ****
 26  27  29  30  31  37  38  41  42  43  44  45  46  47 0
 3-21G
 ****
 48 0
 3-21G
 ****


