%nproc=1
%NoSave
%Mem=1900MB
#P OB98/GEN NMR

erre ene a

0 1
  C     1333.631    -391.985    -103.451
  O     1334.460    -391.989    -104.603
  H     1332.703    -392.509    -103.696
  H     1333.390    -390.961    -103.164
  H     1334.110    -392.506    -102.619
  P     1335.956    -391.432    -104.462
  C     1335.545    -389.758    -106.383
  O     1335.951    -389.923    -105.033
  C     1335.904    -388.354    -106.863
  O     1335.086    -387.371    -106.158
  C     1337.351    -387.950    -106.594
  O     1338.242    -388.581    -107.509
  C     1337.256    -386.444    -106.714
  O     1337.298    -386.030    -108.076
  C     1335.868    -386.157    -106.100
  N     1335.957    -385.663    -104.724
  C     1336.428    -384.358    -104.556
  O     1336.728    -383.622    -105.512
  N     1336.574    -383.926    -103.271
  C     1336.471    -384.725    -102.147
  O     1336.852    -384.370    -101.041
  C     1335.918    -386.050    -102.374
  C     1335.704    -386.471    -103.631
  O     1337.030    -392.315    -105.027
  O     1336.139    -391.212    -102.883
  H     1336.666    -391.952    -102.522
  H     1338.195    -386.266    -108.402
  H     1336.958    -382.997    -103.144
  H     1335.743    -386.686    -101.512
  H     1335.343    -387.477    -103.825
  H     1335.332    -385.402    -106.699
  H     1338.077    -385.949    -106.181
  H     1337.626    -388.222    -105.568
  H     1335.661    -388.270    -107.936
  H     1334.461    -389.906    -106.459
  H     1336.045    -390.504    -107.010
  P     1339.819    -388.577    -107.225
  C     1340.623    -387.636    -109.480
  O     1340.476    -387.395    -108.084
  O     1340.481    -389.917    -107.373
  O     1339.944    -388.046    -105.717
  H     1340.504    -388.667    -105.216
  H     1341.070    -386.782    -109.944
  H     1339.662    -387.816    -109.914
  H     1341.248    -388.491    -109.630

 6  7  8  9  10  11  12  13  14  15  16  27  31  32  33  34  35 0
 6-311+G(2d,p)
 ****
 36  37 0
 6-311+G(2d,p)
 ****
 1  2  3  4  5  17  18  19  20  21  22  23  24  25 0
 3-21G
 ****
 26  28  29  30  38  39  40  41  42  43  44  45 0
 3-21G
 ****


