%nproc=1
%NoSave
%Mem=1900MB
#P OB98/GEN NMR

erre ene a

0 1
  C     -364.525    -316.166     424.311
  O     -364.127    -317.194     423.404
  P     -365.119    -318.229     422.699
  C     -363.157    -319.956     422.892
  O     -364.248    -319.452     422.141
  C     -362.444    -321.151     422.225
  O     -363.438    -322.074     421.705
  C     -361.641    -320.657     421.009
  O     -360.333    -320.125     421.187
  C     -361.712    -321.806     420.014
  O     -360.580    -322.692     420.117
  C     -362.990    -322.540     420.411
  N     -364.448    -322.930     415.510
  C     -363.197    -323.126     416.069
  N     -362.189    -323.406     415.211
  N     -362.962    -323.014     417.354
  C     -364.037    -322.649     418.088
  C     -365.322    -322.402     417.647
  C     -365.589    -322.573     416.239
  O     -366.683    -322.431     415.688
  N     -366.143    -322.034     418.669
  C     -365.342    -322.011     419.735
  N     -364.048    -322.383     419.424
  O     -366.125    -317.624     421.775
  O     -365.925    -318.869     423.951
  H     -360.410    -322.844     421.059
  H     -366.823    -319.067     423.622
  H     -364.587    -323.032     414.523
  H     -365.656    -321.740     420.732
  H     -362.826    -323.628     420.518
  H     -361.712    -321.434     418.989
  H     -362.289    -323.379     414.213
  H     -362.205    -319.837     420.540
  H     -361.242    -323.333     415.586
  H     -361.841    -321.712     422.946
  H     -363.552    -320.262     423.882
  H     -362.436    -319.163     423.096
  P     -359.789    -318.740     420.614
  C     -357.408    -319.696     420.663
  O     -358.243    -318.616     421.022
  O     -360.502    -317.623     421.549
  O     -360.092    -318.479     419.172
  H     -360.438    -316.750     421.134
  H     -356.484    -319.629     421.255
  H     -357.168    -319.635     419.607
  H     -357.898    -320.652     420.879
  H     -363.663    -315.620     424.632
  H     -365.005    -316.606     425.160
  H     -365.205    -315.502     423.821

 3  4  5  6  7  8  9  10  11  12  23  26  30  31 0
 6-311+G(2d,p)
 ****
 33  35  36  37  38 0
 6-311+G(2d,p)
 ****
 1  2  13  14  15  16  17  18  19  20  21  22  24  25 0
 3-21G
 ****
 27  28  29  32  34  39  40  41  42  43  44  45  46  47  48  49 0
 3-21G
 ****


