%nproc=1
%NoSave
%Mem=1900MB
#P OB98/GEN NMR

erre ene a

0 1
  C       66.137     663.989    -673.307
  O       67.537     663.773    -673.221
  P       68.277     662.807    -674.264
  C       70.391     664.271    -674.315
  O       69.865     662.980    -674.027
  C       71.836     664.398    -673.864
  O       71.901     664.439    -672.415
  C       72.755     663.218    -674.311
  O       74.060     663.795    -674.569
  C       72.799     662.329    -673.087
  O       73.926     661.456    -673.075
  C       72.826     663.401    -671.982
  N       74.442     661.595    -667.449
  C       75.119     662.022    -668.564
  N       74.605     662.465    -669.740
  C       73.253     662.464    -669.711
  C       72.440     662.050    -668.670
  C       73.063     661.622    -667.502
  N       72.405     661.232    -666.336
  N       71.097     662.147    -669.047
  C       71.133     662.598    -670.280
  N       72.398     662.864    -670.702
  O       67.845     662.948    -675.683
  O       67.986     661.338    -673.707
  H       73.903     660.937    -672.252
  H       67.320     660.892    -674.279
  H       76.192     661.977    -668.484
  H       70.261     662.755    -670.915
  H       73.814     663.849    -671.854
  H       71.901     661.719    -673.034
  H       72.396     662.704    -675.203
  H       72.243     665.366    -674.226
  H       69.784     665.020    -673.759
  H       72.948     661.073    -665.510
  H       71.411     661.481    -666.261
  H       70.295     664.493    -675.385
  P       74.979     663.204    -675.729
  C       74.973     665.465    -676.919
  O       75.786     664.460    -676.346
  O       74.292     662.309    -676.710
  O       76.140     662.412    -674.909
  H       76.598     661.798    -675.524
  H       74.659     665.161    -677.928
  H       75.559     666.396    -676.986
  H       74.098     665.661    -676.318
  H       65.831     664.659    -672.531
  H       65.625     663.056    -673.196
  H       65.900     664.415    -674.259

 3  4  5  6  7  8  9  10  11  12  22  25  29  30  31  32 0
 6-311+G(2d,p)
 ****
 33  36  37 0
 6-311+G(2d,p)
 ****
 1  2  13  14  15  16  17  18  19  20  21  23  24  26 0
 3-21G
 ****
 27  28  34  35  38  39  40  41  42  43  44  45  46  47  48 0
 3-21G
 ****


