%nproc=1
%NoSave
%Mem=1900MB
#P OB98/GEN NMR

erre ene a

0 1
  C      201.087     277.349    -102.224
  O      200.291     278.318    -101.571
  P      198.693     278.294    -101.586
  C      198.828     279.326     -99.202
  O      198.167     279.320    -100.461
  C      198.059     280.102     -98.124
  O      196.671     279.701     -98.147
  C      198.590     279.739     -96.734
  O      199.736     280.391     -96.221
  C      197.367     279.777     -95.825
  O      197.260     281.003     -95.099
  C      196.194     279.621     -96.792
  N      191.992     277.431     -94.998
  C      192.243     278.765     -95.231
  N      191.326     279.634     -94.741
  N      193.307     279.209     -95.859
  C      194.171     278.224     -96.196
  C      194.024     276.869     -96.033
  C      192.830     276.396     -95.376
  O      192.608     275.223     -95.079
  N      195.145     276.181     -96.434
  C      195.986     277.126     -96.804
  N      195.456     278.382     -96.640
  O      198.043     276.955    -101.693
  O      198.377     279.095    -102.952
  H      197.101     281.720     -95.739
  H      197.570     278.705    -103.338
  H      191.194     277.156     -94.437
  H      196.996     276.954     -97.161
  H      195.476     280.439     -96.664
  H      197.425     278.982     -95.071
  H      190.578     279.342     -94.132
  H      198.877     278.685     -96.770
  H      191.562     280.620     -94.742
  H      198.062     281.175     -98.334
  H      199.822     279.758     -99.354
  H      198.975     278.295     -98.866
  P      201.138     279.700     -95.874
  C      202.264     281.850     -96.684
  O      202.230     280.858     -95.676
  O      201.590     279.009     -97.241
  O      201.088     278.692     -94.773
  H      202.225     278.293     -97.055
  H      203.212     282.393     -96.621
  H      201.441     282.558     -96.528
  H      202.172     281.405     -97.682
  H      202.122     277.576    -102.072
  H      200.870     277.357    -103.272
  H      200.871     276.381    -101.822

 3  4  5  6  7  8  9  10  11  12  23  26  30  31 0
 6-311+G(2d,p)
 ****
 33  35  36  37  38 0
 6-311+G(2d,p)
 ****
 1  2  13  14  15  16  17  18  19  20  21  22  24  25 0
 3-21G
 ****
 27  28  29  32  34  39  40  41  42  43  44  45  46  47  48  49 0
 3-21G
 ****


