%nproc=1
%NoSave
%Mem=1900MB
#P OB98/GEN NMR

erre ene a

0 1
  C      101.237      46.180     -90.737
  O      100.453      47.256     -91.214
  H      102.280      46.358     -91.010
  H      100.905      45.243     -91.194
  H      101.163      46.111     -89.649
  P       98.884      47.190     -90.896
  C       97.542      48.073     -92.950
  O       98.211      48.379     -91.737
  C       98.332      48.615     -94.148
  O       98.569      50.039     -93.943
  C       99.709      47.958     -94.333
  O      100.036      48.005     -95.732
  C      100.612      48.912     -93.568
  O      101.968      48.683     -93.874
  C      100.000      50.241     -94.002
  N      102.782      54.523     -93.769
  C      102.553      53.654     -94.777
  N      101.790      52.543     -94.767
  C      101.211      52.373     -93.567
  C      101.342      53.178     -92.448
  C      102.179      54.301     -92.578
  N      102.422      55.183     -91.550
  N      100.599      52.677     -91.396
  C      100.027      51.590     -91.874
  N      100.375      51.363     -93.177
  O       98.791      47.693     -89.381
  O       98.247      45.853     -91.082
  H      102.543      49.334     -93.420
  H       98.779      46.928     -88.777
  H      103.051      53.882     -95.717
  H       99.367      50.933     -91.321
  H      100.258      50.489     -95.038
  H      100.504      48.767     -92.488
  H       99.748      46.923     -93.984
  H       97.720      48.523     -95.052
  H       96.547      48.531     -92.923
  H       97.437      46.988     -93.045
  H      103.046      55.956     -91.722
  H      101.992      55.020     -90.652
  P      100.526      46.661     -96.467
  C      102.368      46.761     -98.321
  O      101.028      47.036     -97.943
  O       99.133      45.921     -96.769
  O      101.430      45.779     -95.671
  H       99.277      44.957     -96.798
  H      102.525      47.075     -99.332
  H      102.553      45.710     -98.241
  H      103.037      47.291     -97.675

 6  7  8  9  10  11  12  13  14  15  25  28  32  33  34  35 0
 6-311+G(2d,p)
 ****
 36  37  40 0
 6-311+G(2d,p)
 ****
 1  2  3  4  5  16  17  18  19  20  21  22  23  24 0
 3-21G
 ****
 26  27  29  30  31  38  39 41  42  43  44  45  46  47  48 0
 3-21G
 ****


