%nproc=1
%NoSave
%Mem=1900MB
#P OB98/GEN NMR

erre ene a

0 1
  C      -74.709    -340.557    -432.673
  O      -74.810    -339.272    -432.090
  H      -75.541    -341.174    -432.316
  H      -73.769    -341.030    -432.382
  H      -74.767    -340.483    -433.764
  P      -73.616    -338.249    -432.414
  C      -75.094    -337.102    -434.236
  O      -73.898    -337.808    -433.932
  C      -74.768    -335.643    -434.538
  O      -73.905    -335.544    -435.690
  C      -75.990    -334.786    -434.875
  O      -76.721    -334.396    -433.719
  C      -75.320    -333.610    -435.548
  O      -74.712    -332.759    -434.556
  C      -74.243    -334.323    -436.407
  N      -74.703    -334.625    -437.764
  C      -74.177    -333.842    -438.797
  O      -73.380    -332.931    -438.550
  N      -74.597    -334.076    -440.084
  C      -75.450    -335.025    -440.321
  N      -75.842    -335.203    -441.616
  C      -76.017    -335.884    -439.269
  C      -75.606    -335.634    -438.033
  O      -72.334    -339.197    -432.562
  O      -73.438    -337.120    -431.450
  H      -74.171    -332.108    -435.040
  H      -71.561    -338.672    -432.884
  H      -76.737    -336.651    -439.517
  H      -75.984    -336.228    -437.203
  H      -73.332    -333.715    -436.472
  H      -76.015    -332.983    -436.119
  H      -76.640    -335.284    -435.597
  H      -74.218    -335.230    -433.680
  H      -75.484    -334.558    -442.313
  H      -75.765    -337.171    -433.370
  H      -76.630    -335.789    -441.872
  H      -75.587    -337.553    -435.100
  P      -78.295    -334.126    -433.890
  C      -78.841    -336.607    -433.304
  O      -78.973    -335.544    -434.242
  O      -78.377    -333.325    -435.270
  O      -78.938    -333.376    -432.763
  H      -79.056    -332.625    -435.232
  H      -79.341    -337.476    -433.677
  H      -79.279    -336.317    -432.372
  H      -77.804    -336.827    -433.158

 6  7  8  9  10  11  12  13  14  15  16  26  30  31  32  33  35 0
 6-311+G(2d,p)
 ****
 37  38 0
 6-311+G(2d,p)
 ****
 1  2  3  4  5  17  18  19  20  21  22  23  24  25 0
 3-21G
 ****
 27  28  29  34  36  39  40  41  42  43  44  45  46 0
 3-21G
 ****


