%nproc=1
%NoSave
%Mem=1900MB
#P OB98/GEN NMR

erre ene a

0 1
  C     -249.710      72.594      18.316
  O     -250.615      72.476      17.241
  H     -249.984      73.471      18.907
  H     -248.697      72.734      17.928
  H     -249.738      71.713      18.961
  P     -250.743      71.068      16.493
  C     -249.147      71.720      14.572
  O     -249.397      70.826      15.649
  C     -247.824      71.405      13.874
  O     -246.744      71.460      14.831
  C     -247.800      70.003      13.263
  O     -248.326      69.926      11.948
  C     -246.309      69.678      13.276
  O     -245.662      70.143      12.078
  C     -245.789      70.443      14.497
  N     -243.054      69.516      18.715
  C     -242.827      70.452      17.725
  N     -241.715      71.204      17.865
  N     -243.615      70.614      16.694
  C     -244.631      69.724      16.641
  C     -244.945      68.740      17.551
  C     -244.111      68.617      18.727
  O     -244.278      67.815      19.641
  N     -246.028      67.999      17.142
  C     -246.310      68.480      15.948
  N     -245.543      69.578      15.636
  O     -251.824      71.354      15.343
  O     -251.178      69.919      17.351
  H     -244.698      70.062      12.205
  H     -252.331      70.542      15.163
  H     -242.430      69.458      19.499
  H     -247.085      68.103      15.290
  H     -244.844      70.954      14.276
  H     -246.145      68.599      13.321
  H     -241.031      71.065      18.590
  H     -248.310      69.288      13.914
  H     -241.411      71.769      17.068
  H     -247.621      72.176      13.119
  H     -249.115      72.722      15.002
  H     -249.973      71.694      13.856
  P     -249.084      68.613      11.444
  C     -246.933      67.869      10.134
  O     -247.991      67.537      11.005
  O     -249.723      69.077      10.053
  O     -250.112      68.065      12.378
  H     -250.663      69.313      10.168
  H     -246.320      67.007       9.972
  H     -246.344      68.649      10.570
  H     -247.332      68.204       9.199

 6  7  8  9  10  11  12  13  14  15  26  29  33  34 0
 6-311+G(2d,p)
 ****
 36  38  39  40  41 0
 6-311+G(2d,p)
 ****
 1  2  3  4  5  16  17  18  19  20  21  22  23  24  25 0
 3-21G
 ****
 27  28  30  31  32  35  37  42  43  44  45  46  47 0
 3-21G
 ****
 48  49 0
 3-21G
 ****


