%nproc=1
%NoSave
%Mem=1900MB
#P OB98/GEN NMR

erre ene a

0 1
  C      230.045    -255.264     385.672
  O      230.480    -255.247     387.041
  P      230.796    -256.642     387.780
  C      229.529    -258.873     388.251
  O      229.446    -257.480     387.987
  C      228.153    -259.458     388.606
  O      227.633    -258.821     389.812
  C      227.086    -259.285     387.512
  O      226.219    -260.424     387.587
  C      226.346    -258.038     387.974
  O      225.058    -257.907     387.397
  C      226.344    -258.266     389.486
  N      226.078    -257.062     390.279
  C      224.843    -256.440     390.130
  O      223.978    -256.801     389.337
  N      224.634    -255.341     390.925
  C      225.525    -254.798     391.800
  O      225.289    -253.793     392.457
  C      226.826    -255.478     391.890
  C      227.036    -256.560     391.139
  O      231.131    -256.162     389.273
  O      231.947    -257.414     387.218
  H      224.589    -257.205     387.885
  H      231.933    -256.611     389.590
  H      223.738    -254.888     390.846
  H      227.562    -255.074     392.576
  H      227.984    -257.085     391.198
  H      225.596    -259.032     389.738
  H      226.928    -257.150     387.693
  H      227.509    -259.189     386.508
  H      228.285    -260.520     388.844
  H      230.212    -259.042     389.086
  H      229.937    -259.378     387.366
  P      226.340    -261.543     386.434
  C      225.567    -261.704     383.941
  O      225.697    -260.923     385.104
  O      225.222    -262.582     386.932
  O      227.691    -262.148     386.299
  H      224.394    -262.146     387.201
  H      225.247    -262.722     384.169
  H      226.528    -261.733     383.410
  H      224.819    -261.245     383.286
  H      229.881    -254.261     385.338
  H      229.134    -255.820     385.594
  H      230.796    -255.724     385.065

 3  4  5  6  7  8  9  10  11  12  13  23  28  29  30  31  32 0
 6-311+G(2d,p)
 ****
 33  34 0
 6-311+G(2d,p)
 ****
 1  2  14  15  16  17  18  19  20  21  22  24  25  26 0
 3-21G
 ****
 27  35  36  37  38  39  40  41  42  43  44  45 0
 3-21G
 ****


