%nproc=1
%NoSave
%Mem=1900MB
#P OB98/GEN NMR

erre ene a

0 1
  C      351.211     357.762     646.389
  O      351.502     359.087     646.786
  H      351.680     357.077     647.101
  H      351.621     357.567     645.395
  H      350.134     357.585     646.391
  P      350.847     360.300     645.967
  C      348.876     361.917     646.313
  O      349.709     360.932     646.908
  C      348.802     363.161     647.192
  O      348.134     362.818     648.434
  C      350.171     363.753     647.541
  O      350.061     365.175     647.549
  C      350.421     363.252     648.952
  O      351.295     364.113     649.683
  C      349.003     363.196     649.523
  N      348.355     362.745     654.511
  C      348.319     363.866     653.705
  N      348.105     365.052     654.318
  N      348.484     363.833     652.409
  C      348.677     362.579     651.927
  C      348.733     361.394     652.622
  C      348.563     361.446     654.060
  O      348.596     360.492     654.823
  N      348.973     360.335     651.775
  C      349.065     360.880     650.576
  N      348.902     362.243     650.618
  O      350.389     359.966     644.583
  O      351.985     361.423     645.959
  H      352.135     364.166     649.177
  H      352.462     361.428     645.108
  H      348.230     362.830     655.505
  H      349.252     360.346     649.657
  H      348.673     364.164     649.912
  H      350.872     362.255     648.918
  H      347.952     365.157     655.311
  H      350.959     363.443     646.847
  H      348.050     365.884     653.744
  H      348.169     363.904     646.690
  H      347.873     361.490     646.192
  H      349.272     362.178     645.325
  P      351.089     366.034     646.660
  C      351.021     364.626     644.502
  O      350.670     365.866     645.120
  O      352.532     365.825     646.961
  O      350.647     367.549     646.978
  H      351.431     368.122     646.896
  H      350.693     364.630     643.483
  H      350.550     363.821     645.026
  H      352.083     364.499     644.534

 6  7  8  9  10  11  12  13  14  15  26  29  33  34 0
 6-311+G(2d,p)
 ****
 36  38  39  40  41 0
 6-311+G(2d,p)
 ****
 1  2  3  4  5  16  17  18  19  20  21  22  23  24  25 0
 3-21G
 ****
 27  28  30  31  32  35  37  42  43  44  45  46  47 0
 3-21G
 ****
 48  49 0
 3-21G
 ****


