%nproc=1
%NoSave
%Mem=1900MB
#P OB98/GEN NMR

erre ene a

0 1
  C      -22.934    -347.612    -104.767
  O      -23.136    -348.594    -103.771
  H      -23.008    -348.090    -105.748
  H      -21.939    -347.173    -104.668
  H      -23.696    -346.830    -104.703
  P      -23.233    -348.130    -102.240
  C      -23.210    -349.606    -100.124
  O      -23.782    -349.384    -101.407
  C      -24.033    -350.643     -99.363
  O      -25.296    -350.073     -98.952
  C      -24.384    -351.876    -100.186
  O      -23.273    -352.742    -100.309
  C      -25.545    -352.436     -99.380
  O      -25.072    -353.185     -98.251
  C      -26.263    -351.146     -98.927
  N      -27.429    -350.826     -99.752
  C      -28.609    -351.492     -99.442
  O      -28.696    -352.337     -98.551
  N      -29.694    -351.175    -100.218
  C      -29.683    -350.365    -101.316
  O      -30.663    -350.184    -102.031
  C      -28.402    -349.708    -101.611
  C      -27.352    -349.962    -100.829
  O      -23.951    -346.846    -101.997
  O      -21.701    -348.038    -101.777
  H      -24.699    -354.014     -98.608
  H      -21.433    -347.101    -101.725
  H      -30.556    -351.658    -100.017
  H      -28.359    -349.046    -102.465
  H      -26.397    -349.493    -101.032
  H      -26.599    -351.243     -97.888
  H      -26.171    -353.106     -99.969
  H      -24.751    -351.576    -101.174
  H      -23.480    -350.923     -98.457
  H      -23.209    -348.662     -99.569
  H      -22.176    -349.946    -100.249
  P      -23.348    -354.001    -101.293
  C      -21.683    -355.746    -102.179
  O      -21.847    -354.434    -101.650
  O      -24.256    -353.840    -102.468
  O      -23.852    -355.191    -100.348
  H      -24.701    -355.534    -100.686
  H      -20.647    -355.923    -102.378
  H      -22.242    -355.837    -103.087
  H      -22.037    -356.464    -101.469

 6  7  8  9  10  11  12  13  14  15  16  26  31  32  33  34  35 0
 6-311+G(2d,p)
 ****
 36  37 0
 6-311+G(2d,p)
 ****
 1  2  3  4  5  17  18  19  20  21  22  23  24  25 0
 3-21G
 ****
 27  28  29  30  38  39  40  41  42  43  44  45 0
 3-21G
 ****


