%nproc=1
%NoSave
%Mem=1900MB
#P OB98/GEN NMR

erre ene a

0 1
  C     -195.464     -23.171     289.723
  O     -195.775     -24.460     289.219
  P     -194.946     -25.744     289.683
  C     -193.125     -25.609     287.793
  O     -193.444     -25.590     289.170
  C     -191.870     -26.466     287.584
  O     -190.715     -25.800     288.138
  C     -192.004     -27.827     288.263
  O     -192.470     -28.800     287.344
  C     -190.591     -28.091     288.756
  O     -189.774     -28.607     287.690
  C     -190.128     -26.667     289.147
  N     -190.518     -26.149     290.478
  C     -189.808     -26.549     291.606
  O     -188.834     -27.294     291.572
  N     -190.280     -26.069     292.802
  C     -191.333     -25.218     292.964
  O     -191.892     -24.994     294.033
  C     -191.863     -24.628     291.730
  C     -191.455     -25.129     290.563
  O     -195.532     -26.907     288.758
  O     -195.041     -26.082     291.134
  H     -189.614     -27.876     287.066
  H     -196.201     -27.432     289.240
  H     -189.853     -26.464     293.633
  H     -192.605     -23.844     291.812
  H     -191.860     -24.732     289.634
  H     -189.039     -26.575     289.072
  H     -190.582     -28.848     289.539
  H     -192.671     -27.754     289.136
  H     -191.702     -26.592     286.505
  H     -192.953     -24.585     287.432
  H     -193.963     -26.017     287.217
  P     -193.193     -30.122     287.887
  C     -191.361     -31.814     287.302
  O     -192.000     -31.096     288.334
  O     -194.210     -30.722     286.980
  O     -193.845     -29.637     289.271
  H     -194.792     -29.422     289.135
  H     -190.467     -32.295     287.699
  H     -191.069     -31.138     286.487
  H     -192.032     -32.587     286.909
  H     -196.128     -22.450     289.294
  H     -194.455     -22.922     289.468
  H     -195.574     -23.168     290.787

 3  4  5  6  7  8  9  10  11  12  13  23  28  29  30  31  32 0
 6-311+G(2d,p)
 ****
 33  34 0
 6-311+G(2d,p)
 ****
 1  2  14  15  16  17  18  19  20  21  22  24  25  26  27 0
 3-21G
 ****
 35  36  37  38  39  40  41  42  43  44  45 0
 3-21G
 ****


