%nproc=1
%NoSave
%Mem=1900MB
#P OB98/GEN NMR

erre ene a

0 1
  C      -17.045     218.972     257.716
  O      -17.707     218.089     256.808
  P      -17.345     217.939     255.263
  C      -19.745     217.125     254.573
  O      -18.351     216.871     254.614
  C      -20.580     216.060     255.320
  O      -20.485     216.289     256.749
  C      -22.059     216.185     254.957
  O      -22.555     215.576     253.772
  C      -22.800     215.777     256.220
  O      -23.164     214.395     256.229
  C      -21.789     216.068     257.334
  N      -24.555     217.807     261.274
  C      -24.538     216.541     260.710
  N      -25.391     215.638     261.217
  N      -23.749     216.206     259.715
  C      -23.004     217.230     259.242
  C      -22.956     218.529     259.697
  C      -23.781     218.877     260.842
  O      -23.827     219.974     261.385
  N      -22.095     219.294     258.960
  C      -21.642     218.468     258.028
  N      -22.167     217.197     258.162
  O      -15.898     217.788     254.945
  O      -17.837     219.340     254.630
  H      -23.476     214.168     257.119
  H      -17.225     219.549     253.894
  H      -25.159     218.006     262.055
  H      -20.945     218.737     257.249
  H      -21.681     215.210     258.008
  H      -23.736     216.343     256.319
  H      -26.100     215.869     261.894
  H      -22.262     217.254     254.827
  H      -25.534     214.787     260.672
  H      -20.169     215.058     255.141
  H      -20.030     217.158     253.522
  H      -19.958     218.113     254.995
  P      -23.297     216.327     252.570
  C      -24.985     214.417     252.293
  O      -24.001     215.221     251.655
  O      -22.100     216.842     251.637
  O      -24.176     217.467     252.979
  H      -22.413     217.530     251.021
  H      -25.155     213.518     251.676
  H      -25.916     214.973     252.382
  H      -24.650     214.107     253.285
  H      -17.482     218.877     258.688
  H      -17.152     219.980     257.374
  H      -16.006     218.720     257.765

 3  4  5  6  7  8  9  10  11  12  23  26  30  31 0
 6-311+G(2d,p)
 ****
 33  35  36  37  38 0
 6-311+G(2d,p)
 ****
 1  2  13  14  15  16  17  18  19  20  21  22  24  25 0
 3-21G
 ****
 27  28  29  32  34  39  40  41  42  43  44  45  46  47  48  49 0
 3-21G
 ****


