%nproc=1
%NoSave
%Mem=1900MB
#P OB98/GEN NMR

erre ene a

0 1
  C      360.489     -13.161    -308.371
  O      361.222     -14.177    -307.719
  H      360.582     -13.304    -309.453
  H      360.884     -12.176    -308.114
  H      359.431     -13.221    -308.102
  P      361.307     -14.159    -306.120
  C      363.747     -13.313    -306.128
  O      362.405     -13.054    -305.726
  C      364.698     -13.109    -304.944
  O      364.852     -11.679    -304.744
  C      364.161     -13.721    -303.642
  O      365.089     -14.598    -303.010
  C      363.687     -12.508    -302.851
  O      363.682     -12.682    -301.450
  C      364.602     -11.387    -303.356
  N      364.038     -10.047    -303.204
  C      363.753      -9.616    -301.912
  O      363.962     -10.259    -300.887
  N      363.209      -8.361    -301.818
  C      362.918      -7.525    -302.855
  O      362.439      -6.409    -302.706
  C      363.222      -8.046    -304.199
  C      363.758      -9.268    -304.308
  O      361.497     -15.488    -305.468
  O      359.932     -13.474    -305.665
  H      363.346     -13.581    -301.261
  H      359.313     -14.161    -305.353
  H      363.010      -8.032    -300.886
  H      362.997      -7.416    -305.047
  H      363.999      -9.682    -305.283
  H      365.558     -11.405    -302.827
  H      362.655     -12.286    -303.150
  H      363.301     -14.370    -303.843
  H      365.684     -13.513    -305.204
  H      363.995     -12.620    -306.938
  H      363.829     -14.340    -306.496
  P      365.008     -16.192    -303.053
  C      363.332     -16.419    -301.050
  O      363.611     -16.639    -302.426
  O      366.225     -16.911    -302.574
  O      364.844     -16.512    -304.628
  H      365.292     -17.366    -304.785
  H      362.353     -16.785    -300.822
  H      363.379     -15.371    -300.840
  H      364.054     -16.936    -300.453

 6  7  8  9  10  11  12  13  14  15  16  26  31  32  33  34  35 0
 6-311+G(2d,p)
 ****
 36  37 0
 6-311+G(2d,p)
 ****
 1  2  3  4  5  17  18  19  20  21  22  23  24  25 0
 3-21G
 ****
 27  28  29  30  38  39  40  41  42  43  44  45 0
 3-21G
 ****


