%nproc=1
%NoSave
%Mem=1900MB
#P OB98/GEN NMR

erre ene a

0 1
  C      -23.346      16.896     -89.685
  O      -24.600      16.445     -90.165
  P      -25.829      16.163     -89.168
  C      -25.356      13.657     -89.600
  O      -26.331      14.682     -89.523
  C      -26.031      12.288     -89.696
  O      -25.003      11.274     -89.848
  C      -26.874      11.911     -88.471
  O      -27.993      11.153     -88.943
  C      -25.933      11.034     -87.669
  O      -26.618      10.180     -86.765
  C      -25.186      10.309     -88.794
  N      -23.908       9.761     -88.355
  C      -23.918       8.866     -87.284
  O      -24.969       8.571     -86.716
  N      -22.728       8.320     -86.874
  C      -21.617       8.699     -87.425
  N      -20.472       8.083     -87.024
  C      -21.552       9.722     -88.485
  C      -22.723      10.186     -88.910
  O      -26.896      17.202     -89.181
  O      -25.141      15.948     -87.745
  H      -25.958       9.751     -86.188
  H      -24.975      16.797     -87.264
  H      -20.598      10.025     -88.894
  H      -22.773      10.921     -89.701
  H      -25.810       9.507     -89.206
  H      -25.253      11.665     -87.087
  H      -27.236      12.786     -87.922
  H      -26.645      12.268     -90.604
  H      -20.577       7.271     -86.425
  H      -24.750      13.688     -88.691
  H      -19.647       8.082     -87.612
  H      -24.700      13.835     -90.459
  P      -29.465      11.604     -88.487
  C      -29.688       9.649     -86.796
  O      -30.226      10.315     -87.919
  O      -30.190      11.821     -89.904
  O      -29.555      12.854     -87.675
  H      -30.920      12.458     -89.792
  H      -30.337       8.805     -86.547
  H      -29.647      10.321     -85.935
  H      -28.688       9.268     -87.019
  H      -22.673      17.020     -90.508
  H      -22.946      16.176     -89.002
  H      -23.472      17.832     -89.183

 3  4  5  6  7  8  9  10  11  12  13  23  27  28  29  30  32 0
 6-311+G(2d,p)
 ****
 34  35 0
 6-311+G(2d,p)
 ****
 1  2  14  15  16  17  18  19  20  21  22  24  25  26 0
 3-21G
 ****
 31  33  36  37  38  39  40  41  42  43  44  45  46 0
 3-21G
 ****


