%nproc=1
%NoSave
%Mem=1900MB
#P OB98/GEN NMR

erre ene a

0 1
  C      -22.358     -38.471     659.280
  O      -21.039     -37.941     659.228
  P      -20.783     -36.401     658.869
  C      -21.684     -34.869     657.006
  O      -21.389     -36.210     657.396
  C      -21.557     -34.726     655.495
  O      -22.327     -35.793     654.860
  C      -22.098     -33.428     654.883
  O      -21.193     -32.329     654.932
  C      -22.317     -33.862     653.445
  O      -21.060     -33.850     652.740
  C      -22.832     -35.287     653.600
  N      -27.036     -34.892     650.711
  C      -25.711     -34.790     650.406
  N      -24.664     -34.888     651.237
  C      -25.067     -35.156     652.484
  C      -26.364     -35.295     652.939
  C      -27.386     -35.148     651.995
  N      -28.727     -35.279     652.288
  N      -26.394     -35.562     654.298
  C      -25.124     -35.587     654.657
  N      -24.284     -35.365     653.593
  O      -19.366     -35.952     659.044
  O      -21.817     -35.594     659.795
  H      -20.454     -34.456     653.199
  H      -21.557     -34.661     659.841
  H      -25.477     -34.595     649.368
  H      -24.758     -35.773     655.657
  H      -22.459     -35.964     652.808
  H      -22.981     -33.190     652.899
  H      -23.068     -33.159     655.330
  H      -20.496     -34.877     655.212
  H      -20.958     -34.206     657.495
  H      -29.372     -35.288     651.509
  H      -28.979     -35.633     653.205
  H      -22.690     -34.604     657.340
  P      -21.814     -30.859     654.757
  C      -22.841     -29.641     652.678
  O      -21.961     -30.650     653.173
  O      -21.072     -29.792     655.493
  O      -23.326     -31.049     655.268
  H      -23.882     -31.618     654.686
  H      -22.677     -29.561     651.610
  H      -22.623     -28.673     653.148
  H      -23.871     -29.928     652.861
  H      -22.315     -39.509     659.535
  H      -22.826     -38.357     658.325
  H      -22.925     -37.945     660.020

 3  4  5  6  7  8  9  10  11  12  22  25  29  30  31  32 0
 6-311+G(2d,p)
 ****
 33  36  37 0
 6-311+G(2d,p)
 ****
 1  2  13  14  15  16  17  18  19  20  21  23  24  26 0
 3-21G
 ****
 27  28  34  35  38  39  40  41  42  43  44  45  46  47  48 0
 3-21G
 ****


