%nproc=1
%NoSave
%Mem=1900MB
#P OB98/GEN NMR

erre ene a

0 1
  C     -208.098      52.463       4.409
  O     -208.574      51.299       3.738
  P     -209.949      50.655       4.254
  C     -211.717      51.981       2.838
  O     -211.018      50.770       3.066
  C     -212.546      51.906       1.543
  O     -211.639      51.705       0.428
  C     -213.539      50.750       1.472
  O     -214.505      51.039       0.457
  C     -212.654      49.610       1.014
  O     -213.417      48.532       0.481
  C     -211.698      50.312       0.022
  N     -210.337      49.731       0.000
  C     -210.035      48.784      -0.978
  O     -210.836      48.396      -1.828
  N     -208.776      48.250      -0.931
  C     -207.794      48.592      -0.051
  O     -206.711      48.019       0.000
  C     -208.117      49.693       0.865
  C     -209.354      50.196       0.858
  O     -210.463      51.701       5.349
  O     -209.796      49.281       4.814
  H     -212.780      47.805       0.288
  H     -210.327      51.343       6.247
  H     -208.567      47.514      -1.591
  H     -207.339      50.037       1.535
  H     -209.615      50.998       1.545
  H     -212.088      50.263      -1.004
  H     -212.088      49.220       1.866
  H     -214.044      50.525       2.414
  H     -213.056      52.865       1.386
  H     -211.009      52.814       2.789
  H     -212.382      52.185       3.685
  P     -216.055      51.011       0.865
  C     -216.326      53.460       1.603
  O     -216.615      52.494       0.610
  O     -216.373      50.421       2.198
  O     -216.726      50.176      -0.330
  H     -217.597      49.842      -0.048
  H     -216.271      54.445       1.132
  H     -215.375      53.250       2.103
  H     -217.130      53.464       2.345
  H     -207.179      52.781       3.963
  H     -207.934      52.237       5.442
  H     -208.824      53.245       4.326

 3  4  5  6  7  8  9  10  11  12  13  23  28  29  30  31  32 0
 6-311+G(2d,p)
 ****
 33  34 0
 6-311+G(2d,p)
 ****
 1  2  14  15  16  17  18  19  20  21  22  24  25  26  27 0
 3-21G
 ****
 35  36  37  38  39  40  41  42  43  44  45 0
 3-21G
 ****


