%nproc=1
%NoSave
%Mem=1900MB
#P OB98/GEN NMR

erre ene a

0 1
  C      -91.099     425.038    -194.491
  O      -90.362     424.078    -195.223
  H      -91.824     425.530    -195.144
  H      -91.635     424.531    -193.686
  H      -90.423     425.780    -194.056
  P      -89.517     424.633    -196.471
  C      -90.989     423.692    -198.382
  O      -90.561     424.847    -197.677
  C      -91.675     424.096    -199.685
  O      -90.717     424.831    -200.491
  C      -92.187     422.911    -200.518
  O      -93.554     423.117    -200.901
  C      -91.326     422.933    -201.771
  O      -92.033     422.520    -202.935
  C      -90.888     424.390    -201.845
  N      -88.744     423.686    -206.417
  C      -90.041     423.802    -206.046
  N      -90.541     424.088    -204.826
  C      -89.547     424.294    -203.942
  C      -88.183     424.234    -204.177
  C      -87.787     423.895    -205.483
  N      -86.469     423.721    -205.849
  N      -87.473     424.495    -203.023
  C      -88.396     424.666    -202.092
  N      -89.662     424.540    -202.599
  O      -88.665     423.355    -196.931
  O      -88.636     425.795    -196.156
  H      -91.439     422.663    -203.696
  H      -87.716     423.566    -196.844
  H      -90.772     423.637    -206.831
  H      -88.201     424.841    -201.040
  H      -91.654     425.024    -202.311
  H      -90.468     422.265    -201.624
  H      -92.102     421.954    -199.991
  H      -92.494     424.787    -199.451
  H      -91.700     423.127    -197.763
  H      -86.283     423.365    -206.771
  H      -85.764     423.762    -205.132
  H      -90.118     423.055    -198.587
  P      -94.652     422.245    -200.108
  C      -93.871     420.019    -201.218
  O      -94.104     420.737    -200.002
  O      -95.861     422.148    -201.154
  O      -95.095     422.857    -198.823
  H      -96.680     422.489    -200.752
  H      -93.511     419.038    -200.989
  H      -93.143     420.538    -201.805
  H      -94.785     419.944    -201.769

 6  7  8  9  10  11  12  13  14  15  25  28  32  33  34  35 0
 6-311+G(2d,p)
 ****
 36  39  40 0
 6-311+G(2d,p)
 ****
 1  2  3  4  5  16  17  18  19  20  21  22  23  24 0
 3-21G
 ****
 26  27  29  30  31  37  38  41  42  43  44  45  46  47  48 0
 3-21G
 ****


