%nproc=1
%NoSave
%Mem=1900MB
#P OB98/GEN NMR

erre ene a

0 1
  C     -129.325    -485.124     384.020
  O     -130.325    -484.352     384.687
  P     -129.785    -483.163     385.631
  C     -130.122    -484.356     387.914
  O     -129.190    -483.837     386.966
  C     -129.569    -484.244     389.343
  O     -130.569    -484.690     390.311
  C     -128.300    -485.086     389.579
  O     -127.487    -484.344     390.496
  C     -128.872    -486.337     390.237
  O     -127.875    -487.117     390.883
  C     -129.924    -485.706     391.130
  N     -130.766    -489.332     394.631
  C     -129.686    -488.551     394.363
  N     -129.538    -487.616     393.408
  C     -130.672    -487.496     392.689
  C     -131.853    -488.202     392.848
  C     -131.881    -489.158     393.876
  N     -132.974    -489.956     394.146
  N     -132.789    -487.808     391.896
  C     -132.147    -486.927     391.144
  N     -130.897    -486.643     391.639
  O     -131.124    -482.432     386.122
  O     -128.848    -482.230     384.936
  H     -128.250    -488.000     391.125
  H     -131.289    -481.628     385.597
  H     -128.823    -488.731     395.004
  H     -132.526    -486.473     390.241
  H     -129.486    -485.196     392.001
  H     -129.329    -486.967     389.468
  H     -127.728    -485.285     388.664
  H     -129.365    -483.182     389.549
  H     -130.345    -485.402     387.690
  H     -132.898    -490.623     394.898
  H     -133.813    -489.872     393.595
  H     -131.075    -483.810     387.813
  P     -126.078    -483.768     389.993
  C     -124.645    -485.642     391.009
  O     -125.152    -485.073     389.817
  O     -125.504    -483.159     391.360
  O     -126.132    -482.802     388.854
  H     -125.552    -483.803     392.088
  H     -124.099    -486.560     390.751
  H     -125.470    -485.900     391.681
  H     -123.954    -484.950     391.502
  H     -129.795    -485.879     383.425
  H     -128.688    -485.586     384.745
  H     -128.743    -484.485     383.390

 3  4  5  6  7  8  9  10  11  12  22  25  29  30  31  32 0
 6-311+G(2d,p)
 ****
 33  36  37 0
 6-311+G(2d,p)
 ****
 1  2  13  14  15  16  17  18  19  20  21  23  24  26 0
 3-21G
 ****
 27  28  34  35  38  39  40  41  42  43  44  45  46  47  48 0
 3-21G
 ****


