%nproc=1
%NoSave
%Mem=1900MB
#P OB98/GEN NMR

erre ene a

0 1
  C       55.983      88.887    -243.212
  O       56.749      88.161    -244.152
  H       55.311      89.559    -243.754
  H       56.636      89.487    -242.577
  H       55.379      88.214    -242.597
  P       57.671      86.959    -243.632
  C       59.693      88.356    -244.418
  O       59.069      87.076    -244.407
  C       60.996      88.292    -245.210
  O       62.042      87.718    -244.398
  C       60.918      87.429    -246.464
  O       60.225      88.102    -247.500
  C       62.397      87.187    -246.732
  O       62.990      88.322    -247.386
  C       62.948      87.031    -245.295
  N       63.124      85.636    -244.895
  C       64.397      85.102    -245.051
  O       65.336      85.733    -245.538
  N       64.555      83.799    -244.650
  C       63.564      82.978    -244.191
  O       63.748      81.802    -243.891
  C       62.231      83.589    -244.075
  C       62.073      84.868    -244.424
  O       57.050      85.601    -243.664
  O       58.051      87.397    -242.139
  H       62.522      89.110    -247.050
  H       57.489      86.919    -241.501
  H       65.468      83.390    -244.767
  H       61.420      82.965    -243.723
  H       61.096      85.332    -244.356
  H       63.920      87.538    -245.203
  H       62.575      86.325    -247.375
  H       60.443      86.469    -246.234
  H       61.292      89.320    -245.462
  H       59.906      88.652    -243.384
  H       59.003      89.083    -244.861
  P       59.163      87.326    -248.407
  C       60.773      87.606    -250.381
  O       59.430      87.749    -249.936
  O       57.741      87.449    -247.969
  O       59.650      85.803    -248.365
  H       59.054      85.281    -247.795
  H       60.844      87.912    -251.404
  H       61.071      86.582    -250.293
  H       61.415      88.217    -249.781

 6  7  8  9  10  11  12  13  14  15  16  26  31  32  33  34  35 0
 6-311+G(2d,p)
 ****
 36  37 0
 6-311+G(2d,p)
 ****
 1  2  3  4  5  17  18  19  20  21  22  23  24  25 0
 3-21G
 ****
 27  28  29  30  38  39  40  41  42  43  44  45 0
 3-21G
 ****


