%nproc=1
%NoSave
%Mem=1900MB
#P OB98/GEN NMR

erre ene a

0 1
  C      -55.832     246.712      22.890
  O      -55.462     245.355      22.819
  P      -56.236     244.268      21.946
  C      -54.729     244.343      19.810
  O      -56.001     244.599      20.395
  C      -54.859     244.082      18.303
  O      -53.528     243.965      17.738
  C      -55.582     242.752      18.022
  O      -56.513     242.813      16.948
  C      -54.432     241.763      17.890
  O      -54.781     240.574      17.199
  C      -53.354     242.622      17.241
  N      -50.069     238.747      17.376
  C      -51.336     238.794      16.827
  N      -51.853     237.613      16.429
  N      -52.035     239.894      16.716
  C      -51.432     240.977      17.260
  C      -50.180     241.051      17.831
  C      -49.407     239.836      17.919
  O      -48.327     239.726      18.499
  N      -49.927     242.298      18.341
  C      -51.037     242.973      18.109
  N      -51.991     242.199      17.487
  O      -57.619     243.918      22.387
  O      -55.309     242.962      22.154
  H      -53.953     240.105      16.981
  H      -55.904     242.184      22.152
  H      -49.614     237.852      17.507
  H      -51.214     244.001      18.395
  H      -53.467     242.651      16.154
  H      -54.138     241.467      18.905
  H      -51.401     236.732      16.636
  H      -56.201     242.465      18.876
  H      -52.855     237.582      16.260
  H      -55.351     244.934      17.828
  H      -54.331     243.458      20.314
  H      -54.046     245.174      20.001
  P      -57.851     241.971      16.736
  C      -59.431     243.927      17.242
  O      -59.017     242.629      17.619
  O      -57.587     240.580      17.479
  O      -58.220     241.734      15.308
  H      -57.970     239.850      16.950
  H      -60.009     244.361      18.065
  H      -60.065     243.867      16.356
  H      -58.569     244.568      17.039
  H      -55.158     247.232      23.539
  H      -56.828     246.791      23.273
  H      -55.791     247.145      21.912

 3  4  5  6  7  8  9  10  11  12  23  26  30  31 0
 6-311+G(2d,p)
 ****
 33  35  36  37  38 0
 6-311+G(2d,p)
 ****
 1  2  13  14  15  16  17  18  19  20  21  22  24  25 0
 3-21G
 ****
 27  28  29  32  34  39  40  41  42  43  44  45  46  47  48  49 0
 3-21G
 ****


