%nproc=1
%NoSave
%Mem=1900MB
#P OB98/GEN NMR

erre ene a

0 1
  C       54.612     -70.365     189.923
  O       55.854     -70.800     189.407
  H       53.814     -70.943     189.449
  H       54.459     -69.306     189.701
  H       54.575     -70.530     191.002
  P       57.164     -70.035     189.931
  C       57.278     -68.387     187.925
  O       57.101     -68.550     189.325
  C       57.994     -67.070     187.647
  O       57.295     -65.983     188.296
  C       59.418     -67.013     188.184
  O       60.333     -67.707     187.354
  C       59.659     -65.513     188.204
  O       60.075     -65.029     186.918
  C       58.268     -64.957     188.582
  N       58.209     -64.520     189.973
  C       58.485     -63.173     190.193
  O       58.764     -62.385     189.289
  N       58.468     -62.766     191.501
  C       58.247     -63.564     192.584
  O       58.319     -63.151     193.735
  C       57.947     -64.975     192.289
  C       57.951     -65.385     191.018
  O       58.345     -70.734     189.107
  O       57.387     -70.101     191.405
  H       58.819     -71.366     189.678
  H       59.399     -65.334     186.280
  H       58.677     -61.797     191.681
  H       57.759     -65.636     193.129
  H       57.753     -66.426     190.777
  H       58.015     -64.098     187.947
  H       60.442     -65.242     188.912
  H       59.451     -67.392     189.213
  H       57.982     -66.887     186.564
  H       56.299     -68.371     187.432
  H       57.853     -69.235     187.536
  P       61.548     -68.499     188.044
  C       63.154     -66.516     187.421
  O       62.658     -67.401     188.408
  O       62.161     -69.276     186.790
  O       61.127     -69.367     189.181
  H       62.117     -68.764     185.964
  H       63.881     -65.865     187.859
  H       62.347     -65.935     187.025
  H       63.608     -67.079     186.633

 6  7  8  9  10  11  12  13  14  15  16  27  31  32  33  34  35 0
 6-311+G(2d,p)
 ****
 36  37 0
 6-311+G(2d,p)
 ****
 1  2  3  4  5  17  18  19  20  21  22  23  24  25 0
 3-21G
 ****
 26  28  29  30  38  39  40  41  42  43  44  45 0
 3-21G
 ****


