%nproc=1
%NoSave
%Mem=1900MB
#P OB98/GEN NMR

erre ene a

0 1
  C       50.385    -424.924    -899.549
  O       50.506    -424.980    -898.159
  P       51.696    -424.118    -897.489
  C       53.775    -425.416    -898.329
  O       52.906    -425.136    -897.229
  C       55.129    -425.902    -897.809
  O       55.717    -424.887    -896.949
  C       55.049    -427.173    -896.959
  O       54.902    -428.312    -897.779
  C       56.391    -427.088    -896.209
  O       57.438    -427.689    -896.979
  C       56.607    -425.583    -896.049
  N       56.441    -425.125    -894.679
  C       57.623    -424.843    -893.969
  O       58.716    -425.006    -894.509
  N       57.511    -424.435    -892.669
  C       56.357    -424.301    -892.119
  N       56.316    -423.897    -890.829
  C       55.087    -424.609    -892.819
  C       55.218    -425.014    -894.089
  O       51.133    -423.811    -896.009
  O       52.026    -422.857    -898.229
  H       57.341    -428.666    -896.859
  H       51.517    -422.993    -895.639
  H       54.140    -424.504    -892.309
  H       54.325    -425.261    -894.689
  H       57.623    -425.300    -896.379
  H       56.352    -427.643    -895.259
  H       54.225    -427.089    -896.219
  H       55.792    -426.053    -898.659
  H       57.197    -423.709    -890.359
  H       53.939    -424.501    -898.909
  H       55.453    -423.743    -890.309
  H       53.311    -426.172    -898.959
  P       53.459    -428.991    -897.839
  C       53.798    -429.949    -895.449
  O       53.578    -430.249    -896.819
  O       53.475    -429.712    -899.269
  O       52.259    -428.101    -897.649
  H       52.607    -430.093    -899.469
  H       53.676    -430.881    -894.869
  H       53.035    -429.237    -895.109
  H       54.792    -429.535    -895.329
  H       49.564    -425.535    -899.860
  H       51.287    -425.281    -900.000
  H       50.211    -423.912    -899.851

 3  4  5  6  7  8  9  10  11  12  13  21  23  27  28  29  30  32 0
 6-311+G(2d,p)
 ****
 34  35 0
 6-311+G(2d,p)
 ****
 1  2  14  15  16  17  18  19  20  22  24  25  26 0
 3-21G
 ****
 31  33  36  37  38  39  40  41  42  43  44  45  46 0
 3-21G
 ****


