%nproc=1
%NoSave
%Mem=1900MB
#P OB98/GEN NMR

erre ene a

0 1
  C      108.245    -189.110     686.745
  O      108.022    -190.496     686.574
  P      109.111    -191.349     685.737
  C      109.986    -192.533     687.903
  O      110.279    -191.693     686.790
  C      111.155    -192.516     688.907
  O      112.389    -192.882     688.218
  C      111.377    -191.166     689.605
  O      111.768    -191.466     690.964
  C      112.537    -190.580     688.827
  O      113.243    -189.595     689.596
  C      113.354    -191.843     688.535
  N      114.303    -191.671     687.437
  C      115.270    -190.682     687.603
  O      115.314    -189.925     688.581
  N      116.177    -190.562     686.577
  C      116.165    -191.242     685.396
  O      116.986    -191.110     684.506
  C      115.038    -192.201     685.229
  C      114.177    -192.348     686.243
  O      109.734    -190.194     684.828
  O      108.522    -192.511     685.019
  H      109.813    -189.330     685.268
  H      113.627    -190.029     690.393
  H      116.907    -189.880     686.694
  H      114.940    -192.705     684.286
  H      113.317    -193.016     686.142
  H      113.910    -192.171     689.419
  H      112.181    -190.111     687.898
  H      110.494    -190.538     689.598
  H      110.949    -193.291     689.664
  H      109.824    -193.569     687.576
  H      109.050    -192.180     688.370
  P      110.631    -191.465     692.093
  C      109.552    -193.797     691.558
  O      109.424    -192.382     691.577
  O      110.052    -189.973     691.922
  O      111.126    -191.724     693.483
  H      109.878    -189.747     691.002
  H      108.552    -194.227     691.411
  H      109.936    -194.151     692.518
  H      110.210    -194.101     690.753
  H      107.444    -188.688     687.315
  H      108.290    -188.635     685.787
  H      109.170    -188.959     687.262

 3  4  5  6  7  8  9  10  11  12  13  24  28  29  30  31  32 0
 6-311+G(2d,p)
 ****
 33  34 0
 6-311+G(2d,p)
 ****
 1  2  14  15  16  17  18  19  20  21  22  23  25  26  27 0
 3-21G
 ****
 35  36  37  38  39  40  41  42  43  44  45 0
 3-21G
 ****


