%nproc=1
%NoSave
%Mem=1900MB
#P OB98/GEN NMR

erre ene a

0 1
  C      -18.538      40.363      78.521
  O      -17.154      40.608      78.330
  P      -16.671      42.119      78.103
  C      -16.625      41.756      75.526
  O      -17.090      42.545      76.613
  C      -17.126      42.328      74.199
  O      -18.586      42.388      74.222
  C      -16.614      43.745      73.892
  O      -16.452      43.849      72.471
  C      -17.776      44.617      74.339
  O      -17.749      45.915      73.768
  C      -18.954      43.745      73.890
  N      -20.219      44.131      74.518
  C      -21.270      44.479      73.676
  O      -21.197      44.482      72.446
  N      -22.419      44.894      74.297
  C      -22.587      45.079      75.639
  O      -23.601      45.566      76.123
  C      -21.441      44.694      76.480
  C      -20.328      44.245      75.892
  O      -15.078      41.987      78.028
  O      -17.103      43.080      79.162
  H      -16.860      46.285      73.921
  H      -14.674      42.238      78.879
  H      -23.195      45.139      73.701
  H      -21.546      44.809      77.552
  H      -19.462      43.974      76.485
  H      -19.062      43.789      72.797
  H      -17.750      44.727      75.429
  H      -15.678      43.991      74.404
  H      -16.843      41.638      73.393
  H      -16.994      40.735      75.641
  H      -15.528      41.720      75.543
  P      -15.252      44.763      71.913
  C      -16.725      46.886      71.513
  O      -15.656      46.284      72.211
  O      -15.465      44.608      70.333
  O      -13.900      44.326      72.381
  H      -16.402      44.667      70.074
  H      -17.518      46.166      71.294
  H      -16.353      47.311      70.577
  H      -17.140      47.693      72.124
  H      -18.699      39.314      78.658
  H      -19.081      40.698      77.662
  H      -18.878      40.892      79.387

 3  4  5  6  7  8  9  10  11  12  13  23  28  29  30  31  32 0
 6-311+G(2d,p)
 ****
 33  34 0
 6-311+G(2d,p)
 ****
 1  2  14  15  16  17  18  19  20  21  22  24  25  26 0
 3-21G
 ****
 27  35  36  37  38  39  40  41  42  43  44  45 0
 3-21G
 ****


