%nproc=1
%NoSave
%Mem=1900MB
#P OB98/GEN NMR

erre ene a

0 1
  C     -361.640     371.562    -318.891
  O     -361.690     372.620    -317.949
  H     -361.064     371.894    -319.759
  H     -362.651     371.304    -319.217
  H     -361.152     370.689    -318.452
  P     -362.476     372.323    -316.584
  C     -365.002     372.014    -316.091
  O     -364.018     372.570    -316.955
  C     -366.295     372.822    -316.171
  O     -366.106     374.148    -315.645
  C     -366.832     373.015    -317.584
  O     -367.541     371.861    -318.018
  C     -367.757     374.201    -317.378
  O     -369.004     373.754    -316.810
  C     -366.991     375.054    -316.352
  N     -366.946     380.032    -317.611
  C     -367.948     379.212    -317.228
  N     -367.896     377.893    -316.949
  C     -366.648     377.416    -317.101
  C     -365.525     378.134    -317.493
  C     -365.705     379.507    -317.743
  N     -364.677     380.344    -318.125
  N     -364.414     377.318    -317.543
  C     -364.852     376.140    -317.143
  N     -366.200     376.142    -316.900
  O     -361.966     373.035    -315.376
  O     -362.388     370.725    -316.521
  H     -369.613     374.517    -316.789
  H     -362.491     370.342    -317.410
  H     -368.922     379.679    -317.127
  H     -364.228     375.263    -316.998
  H     -367.665     375.499    -315.608
  H     -368.001     374.706    -318.317
  H     -366.030     373.297    -318.278
  H     -367.043     372.323    -315.539
  H     -364.638     372.000    -315.060
  H     -364.924     381.264    -318.449
  H     -363.786     379.929    -318.338
  H     -365.180     370.984    -316.412
  P     -367.389     371.331    -319.526
  C     -368.850     371.507    -321.637
  O     -368.491     372.113    -320.396
  O     -367.418     369.845    -319.676
  O     -366.012     371.954    -320.038
  H     -365.532     371.312    -320.599
  H     -369.585     372.109    -322.128
  H     -369.251     370.532    -321.455
  H     -367.983     371.426    -322.258

 6  7  8  9  10  11  12  13  14  15  25  28  32  33  34  35 0
 6-311+G(2d,p)
 ****
 36  39  40 0
 6-311+G(2d,p)
 ****
 1  2  3  4  5  16  17  18  19  20  21  22  23  24 0
 3-21G
 ****
 26  27  29  30  31  37  38  41  42  43  44  45  46  47 0
 3-21G
 ****
 48 0
 3-21G
 ****


