%nproc=1
%NoSave
%Mem=1900MB
#P OB98/GEN NMR

erre ene a

0 1
  C     -891.600    1022.399     173.389
  O     -892.540    1021.313     173.469
  P     -892.120    1019.921     172.806
  C     -893.780    1019.799     170.805
  O     -892.430    1019.964     171.234
  C     -893.900    1020.061     169.309
  O     -892.900    1019.354     168.549
  C     -895.230    1019.613     168.703
  O     -896.240    1020.593     168.926
  C     -894.890    1019.545     167.235
  O     -894.900    1020.864     166.657
  C     -893.460    1019.005     167.264
  N     -894.040    1015.090     163.990
  C     -894.210    1016.427     163.852
  N     -894.080    1017.398     164.771
  C     -893.650    1016.877     165.941
  C     -893.400    1015.553     166.231
  C     -893.620    1014.622     165.188
  N     -893.420    1013.272     165.339
  N     -893.000    1015.394     167.543
  C     -892.990    1016.622     168.030
  N     -893.370    1017.553     167.100
  O     -893.220    1018.906     173.372
  O     -890.737    1019.469     173.168
  H     -894.050    1021.291     166.901
  H     -892.820    1018.023     173.512
  H     -894.550    1016.759     162.858
  H     -892.690    1016.890     169.030
  H     -892.810    1019.452     166.484
  H     -895.590    1018.940     166.658
  H     -895.520    1018.629     169.079
  H     -893.760    1021.135     169.129
  H     -894.440    1020.469     171.360
  H     -893.560    1012.665     164.541
  H     -893.090    1012.905     166.231
  H     -894.110    1018.782     171.053
  P     -897.260    1020.341     170.139
  C     -899.190    1019.667     168.533
  O     -898.340    1019.297     169.596
  O     -898.070    1021.730     170.228
  O     -896.600    1019.991     171.428
  H     -898.350    1021.898     171.158
  H     -899.630    1018.775     168.088
  H     -898.640    1020.213     167.758
  H     -900.000    1020.311     168.929
  H     -892.010    1023.262     173.871
  H     -891.402    1022.624     172.362
  H     -890.689    1022.119     173.875

 3  4  5  6  7  8  9  10  11  12  22  25  29  30  31  32 0
 6-311+G(2d,p)
 ****
 33  36  37 0
 6-311+G(2d,p)
 ****
 1  2  13  14  15  16  17  18  19  20  21  23  24  26 0
 3-21G
 ****
 27  28  34  35  38  39  40  41  42  43  44  45  46  47  48 0
 3-21G
 ****


