%nproc=1
%NoSave
%Mem=1900MB
#P OB98/GEN NMR

erre ene a

0 1
  C     -688.786     -80.756    -576.989
  O     -689.581     -81.108    -575.873
  H     -687.900     -81.398    -577.008
  H     -688.462     -79.715    -576.909
  H     -689.346     -80.902    -577.918
  P     -690.923     -80.254    -575.658
  C     -689.727     -79.260    -573.576
  O     -690.515     -79.004    -574.733
  C     -689.384     -77.955    -572.865
  O     -688.579     -77.106    -573.721
  C     -690.593     -77.132    -572.438
  O     -691.130     -77.593    -571.216
  C     -689.979     -75.737    -572.329
  O     -689.287     -75.567    -571.074
  C     -688.988     -75.730    -573.506
  N     -688.965     -71.732    -576.586
  C     -688.233     -71.976    -575.441
  N     -687.404     -70.987    -575.028
  N     -688.307     -73.089    -574.759
  C     -689.199     -73.968    -575.271
  C     -689.978     -73.849    -576.403
  C     -689.856     -72.628    -577.167
  O     -690.433     -72.367    -578.223
  N     -690.738     -74.961    -576.609
  C     -690.461     -75.752    -575.579
  N     -689.540     -75.175    -574.734
  O     -691.793     -81.170    -574.668
  O     -691.674     -79.917    -576.902
  H     -689.760     -76.060    -570.380
  H     -692.740     -81.021    -574.853
  H     -688.854     -70.862    -577.081
  H     -690.890     -76.724    -575.408
  H     -688.087     -75.153    -573.275
  H     -690.740     -74.958    -572.375
  H     -687.560     -70.023    -575.306
  H     -691.352     -77.132    -573.232
  H     -686.884     -71.154    -574.182
  H     -688.768     -78.212    -571.983
  H     -688.798     -79.763    -573.879
  H     -690.286     -79.919    -572.905
  P     -692.654     -77.226    -570.872
  C     -692.117     -76.131    -568.571
  O     -692.605     -75.950    -569.899
  O     -693.117     -78.410    -569.899
  O     -693.540     -77.090    -572.072
  H     -694.089     -78.438    -569.854
  H     -692.146     -75.197    -568.050
  H     -691.109     -76.488    -568.607
  H     -692.730     -76.844    -568.060

 6  7  8  9  10  11  12  13  14  15  26  29  33  34 0
 6-311+G(2d,p)
 ****
 36  38  39  40  41 0
 6-311+G(2d,p)
 ****
 1  2  3  4  5  16  17  18  19  20  21  22  23  24  25 0
 3-21G
 ****
 27  28  30  31  32  35  37  42  43  44  45  46  47 0
 3-21G
 ****
 48  49 0
 3-21G
 ****


