%nproc=1
%NoSave
%Mem=1900MB
#P OB98/GEN NMR

erre ene a

0 1
  C      496.234     638.668    -676.743
  O      496.811     639.957    -676.732
  H      496.485     638.168    -675.808
  H      496.635     638.084    -677.575
  H      495.144     638.732    -676.825
  P      496.455     640.972    -677.925
  C      498.510     642.441    -678.437
  O      497.315     642.304    -677.677
  C      498.954     643.906    -678.442
  O      497.951     644.732    -679.068
  C      499.148     644.493    -677.045
  O      500.349     644.037    -676.454
  C      499.107     645.978    -677.358
  O      500.374     646.446    -677.825
  C      498.046     646.045    -678.476
  N      496.746     646.497    -677.977
  C      496.642     647.850    -677.679
  O      497.565     648.654    -677.811
  N      495.444     648.250    -677.139
  C      494.434     647.416    -676.752
  O      493.485     647.785    -676.055
  C      494.571     646.011    -677.157
  C      495.705     645.621    -677.729
  O      494.997     641.195    -678.169
  O      497.169     640.321    -679.202
  H      496.498     639.863    -679.744
  H      500.555     645.948    -678.651
  H      495.380     649.223    -676.870
  H      493.754     645.338    -676.936
  H      495.850     644.577    -678.010
  H      498.376     646.721    -679.277
  H      498.842     646.565    -676.467
  H      498.292     644.232    -676.412
  H      499.878     643.982    -679.033
  H      498.313     642.120    -679.470
  H      499.280     641.799    -678.004
  P      500.304     643.080    -675.169
  C      502.788     643.759    -675.077
  O      501.814     642.788    -674.702
  O      499.443     641.866    -675.304
  O      499.754     644.032    -673.997
  H      499.017     643.586    -673.542
  H      503.749     643.459    -674.713
  H      502.527     644.707    -674.655
  H      502.819     643.839    -676.144

 6  7  8  9  10  11  12  13  14  15  16  27  31  32  33  34  35 0
 6-311+G(2d,p)
 ****
 36  37 0
 6-311+G(2d,p)
 ****
 1  2  3  4  5  17  18  19  20  21  22  23  24  25 0
 3-21G
 ****
 26  28  29  30  38  39  40  41  42  43  44  45 0
 3-21G
 ****


