%nproc=1
%NoSave
%Mem=1900MB
#P OB98/GEN NMR

erre ene a

0 1
  C     -198.849     303.922    -406.869
  O     -197.792     303.300    -406.171
  H     -198.928     303.475    -407.865
  H     -198.655     304.992    -406.982
  H     -199.801     303.770    -406.344
  P     -197.545     303.674    -404.636
  C     -195.035     303.676    -405.225
  O     -196.035     303.270    -404.292
  C     -193.645     303.421    -404.645
  O     -193.559     303.945    -403.298
  C     -193.284     301.941    -404.539
  O     -192.955     301.412    -405.806
  C     -192.141     302.003    -403.538
  O     -190.919     302.415    -404.178
  C     -192.632     303.109    -402.567
  N     -193.257     302.559    -401.361
  C     -192.439     302.485    -400.233
  O     -191.268     302.843    -400.220
  N     -193.026     301.933    -399.119
  C     -194.271     301.381    -399.051
  O     -194.664     300.709    -398.108
  C     -195.105     301.552    -400.252
  C     -194.564     302.110    -401.341
  O     -198.570     303.174    -403.673
  O     -197.494     305.281    -404.645
  H     -198.347     305.630    -404.337
  H     -191.107     303.277    -404.603
  H     -192.427     301.827    -398.302
  H     -196.131     301.184    -400.219
  H     -195.152     302.221    -402.248
  H     -191.800     303.748    -402.257
  H     -191.941     301.040    -403.067
  H     -194.116     301.382    -404.090
  H     -192.910     303.955    -405.262
  H     -195.153     304.752    -405.415
  H     -195.171     303.129    -406.160
  P     -192.891     299.836    -406.053
  C     -190.352     299.684    -406.410
  O     -191.634     299.528    -407.005
  O     -194.174     299.208    -406.505
  O     -192.430     299.232    -404.642
  H     -193.063     298.535    -404.367
  H     -189.594     299.455    -407.130
  H     -190.263     299.021    -405.575
  H     -190.234     300.694    -406.077

 6  7  8  9  10  11  12  13  14  15  16  27  31  32  33  34  35 0
 6-311+G(2d,p)
 ****
 36  37 0
 6-311+G(2d,p)
 ****
 1  2  3  4  5  17  18  19  20  21  22  23  24  25 0
 3-21G
 ****
 26  28  29  30  38  39  40  41  42  43  44  45 0
 3-21G
 ****


