%nproc=1
%NoSave
%Mem=1900MB
#P OB98/GEN NMR

erre ene a

0 1
  C     -173.704    -569.675    -343.099
  O     -174.369    -570.866    -343.490
  P     -173.884    -572.252    -342.841
  C     -171.596    -572.263    -344.083
  O     -172.273    -572.254    -342.835
  C     -171.009    -573.646    -344.371
  O     -170.493    -573.680    -345.734
  C     -169.851    -574.023    -343.438
  O     -169.876    -575.447    -343.210
  C     -168.615    -573.727    -344.271
  O     -167.490    -574.481    -343.825
  C     -169.109    -574.091    -345.665
  N     -164.964    -574.453    -348.538
  C     -165.583    -575.411    -347.764
  N     -164.956    -576.609    -347.687
  N     -166.708    -575.227    -347.141
  C     -167.220    -573.976    -347.309
  C     -166.705    -572.942    -348.062
  C     -165.444    -573.159    -348.740
  O     -164.832    -572.342    -349.417
  N     -167.516    -571.836    -348.017
  C     -168.500    -572.184    -347.204
  N     -168.346    -573.462    -346.720
  O     -174.252    -573.317    -343.977
  O     -174.533    -572.592    -341.545
  H     -166.777    -574.343    -344.480
  H     -175.037    -573.831    -343.705
  H     -164.086    -574.638    -348.996
  H     -169.331    -571.546    -346.922
  H     -169.083    -575.180    -345.835
  H     -168.366    -572.661    -344.190
  H     -164.044    -576.801    -348.089
  H     -169.850    -573.500    -342.476
  H     -165.362    -577.327    -347.086
  H     -171.809    -574.394    -344.313
  H     -170.796    -571.530    -344.060
  H     -172.303    -571.979    -344.879
  P     -169.678    -575.913    -341.679
  C     -167.157    -576.402    -342.128
  O     -168.123    -575.717    -341.356
  O     -169.848    -577.504    -341.756
  O     -170.632    -575.279    -340.715
  H     -170.148    -577.857    -340.895
  H     -166.544    -575.661    -342.660
  H     -167.611    -577.080    -342.850
  H     -166.514    -576.977    -341.458
  H     -174.135    -568.841    -343.612
  H     -172.666    -569.748    -343.347
  H     -173.809    -569.538    -342.043

 3  4  5  6  7  8  9  10  11  12  23  26  30  31 0
 6-311+G(2d,p)
 ****
 33  35  36  37  38 0
 6-311+G(2d,p)
 ****
 1  2  13  14  15  16  17  18  19  20  21  22  24  25 0
 3-21G
 ****
 27  28  29  32  34  39  40  41  42  43  44  45  46  47  48  49 0
 3-21G
 ****


