%nproc=1
%NoSave
%Mem=1900MB
#P OB98/GEN NMR

erre ene a

0 1
  C     -297.959    -117.460    -141.863
  O     -298.835    -118.053    -140.917
  P     -300.118    -118.838    -141.480
  C     -301.401    -120.964    -140.704
  O     -300.188    -120.224    -140.674
  C     -301.109    -122.450    -140.864
  O     -300.554    -122.726    -142.168
  C     -300.087    -122.997    -139.873
  O     -300.661    -123.282    -138.609
  C     -299.664    -124.281    -140.567
  O     -300.643    -125.313    -140.334
  C     -299.667    -123.865    -142.043
  N     -295.189    -125.681    -143.541
  C     -296.376    -126.344    -143.298
  N     -296.344    -127.691    -143.412
  N     -297.491    -125.747    -142.972
  C     -297.367    -124.399    -142.886
  C     -296.249    -123.628    -143.106
  C     -295.018    -124.304    -143.453
  O     -293.925    -123.778    -143.628
  N     -296.516    -122.297    -142.931
  C     -297.794    -122.258    -142.608
  N     -298.343    -123.509    -142.525
  O     -299.662    -119.288    -142.945
  O     -301.376    -118.039    -141.503
  H     -300.615    -125.511    -139.377
  H     -300.444    -119.532    -143.478
  H     -294.353    -126.187    -143.783
  H     -298.355    -121.352    -142.410
  H     -300.061    -124.658    -142.691
  H     -298.705    -124.665    -140.204
  H     -295.501    -128.216    -143.598
  H     -299.221    -122.329    -139.785
  H     -297.181    -128.210    -143.178
  H     -302.056    -122.997    -140.779
  H     -302.013    -120.619    -141.540
  H     -301.955    -120.786    -139.777
  P     -299.643    -123.511    -137.388
  C     -299.925    -123.597    -134.807
  O     -300.526    -123.345    -136.061
  O     -298.742    -122.189    -137.419
  O     -298.827    -124.757    -137.487
  H     -297.865    -122.367    -137.031
  H     -300.569    -123.186    -134.020
  H     -298.944    -123.121    -134.737
  H     -299.828    -124.674    -134.652
  H     -297.155    -116.975    -141.350
  H     -298.496    -116.740    -142.445
  H     -297.565    -118.217    -142.508

 3  4  5  6  7  8  9  10  11  12  23  26  30  31 0
 6-311+G(2d,p)
 ****
 33  35  36  37  38 0
 6-311+G(2d,p)
 ****
 1  2  13  14  15  16  17  18  19  20  21  22  24  25 0
 3-21G
 ****
 27  28  29  32  34  39  40  41  42  43  44  45  46  47  48  49 0
 3-21G
 ****


