%nproc=1
%NoSave
%Mem=1900MB
#P OB98/GEN NMR

erre ene a

0 1
  C      -76.758      59.765     -36.833
  O      -78.000      59.466     -36.224
  P      -78.467      60.267     -34.920
  C      -77.179      58.468     -33.548
  O      -77.485      59.834     -33.728
  C      -76.607      58.208     -32.148
  O      -75.321      58.871     -32.064
  C      -77.441      58.770     -31.001
  O      -77.045      58.119     -29.791
  C      -76.994      60.215     -30.969
  O      -77.278      60.841     -29.721
  C      -75.492      60.110     -31.333
  N      -75.051      61.253     -32.155
  C      -74.700      62.418     -31.476
  O      -74.672      62.495     -30.249
  N      -74.465      63.516     -32.258
  C      -74.595      63.561     -33.615
  O      -74.684      64.601     -34.259
  C      -74.730      62.257     -34.283
  C      -74.975      61.180     -33.534
  O      -79.854      59.562     -34.547
  O      -78.624      61.737     -35.107
  H      -76.825      61.717     -29.733
  H      -80.600      60.075     -34.908
  H      -74.353      64.393     -31.761
  H      -74.686      62.231     -35.364
  H      -75.131      60.211     -34.003
  H      -74.863      60.078     -30.434
  H      -77.531      60.772     -31.747
  H      -78.521      58.678     -31.144
  H      -76.442      57.132     -32.016
  H      -76.470      58.152     -34.319
  H      -78.078      57.855     -33.684
  P      -78.153      57.922     -28.647
  C      -77.549      59.901     -27.122
  O      -78.468      59.385     -28.067
  O      -77.860      56.876     -27.625
  O      -79.479      57.584     -29.484
  H      -80.135      57.158     -28.903
  H      -77.543      60.991     -27.195
  H      -76.537      59.527     -27.301
  H      -77.870      59.615     -26.117
  H      -76.617      59.133     -37.685
  H      -75.967      59.599     -36.131
  H      -76.750      60.789     -37.143

 3  4  5  6  7  8  9  10  11  12  13  23  28  29  30  31  32 0
 6-311+G(2d,p)
 ****
 33  34 0
 6-311+G(2d,p)
 ****
 1  2  14  15  16  17  18  19  20  21  22  24  25  26  27 0
 3-21G
 ****
 35  36  37  38  39  40  41  42  43  44  45 0
 3-21G
 ****


