%nproc=1
%NoSave
%Mem=1900MB
#P OB98/GEN NMR

erre ene a

0 1
  C       23.733    -149.606     113.610
  O       23.927    -148.445     112.835
  H       23.617    -149.309     114.656
  H       24.602    -150.265     113.536
  H       22.831    -150.135     113.294
  P       24.172    -148.587     111.254
  C       21.676    -148.821     110.702
  O       22.835    -148.008     110.566
  C       20.559    -148.347     109.771
  O       19.518    -149.359     109.705
  C       19.898    -147.033     110.217
  O       19.782    -146.147     109.103
  C       18.513    -147.467     110.670
  O       17.552    -146.417     110.607
  C       18.264    -148.657     109.737
  N       17.166    -149.495     110.200
  C       15.879    -148.978     110.029
  O       15.719    -147.873     109.507
  N       14.809    -149.693     110.500
  C       15.011    -150.807     111.131
  N       13.909    -151.453     111.600
  C       16.355    -151.378     111.358
  C       17.377    -150.679     110.868
  O       24.574    -149.951     110.806
  O       25.258    -147.465     110.905
  H       17.276    -146.302     109.671
  H       25.712    -147.710     110.065
  H       16.468    -152.309     111.896
  H       18.401    -151.018     110.986
  H       18.038    -148.316     108.718
  H       18.564    -147.815     111.711
  H       20.441    -146.529     111.017
  H       20.967    -148.260     108.756
  H       13.008    -151.024     111.428
  H       21.344    -148.785     111.747
  H       13.942    -152.313     112.125
  H       21.942    -149.850     110.444
  P       20.123    -144.603     109.385
  C       22.657    -144.246     108.950
  O       21.338    -144.182     108.425
  O       20.774    -144.632     110.846
  O       18.928    -143.711     109.332
  H       20.166    -144.218     111.488
  H       23.355    -143.938     108.200
  H       22.874    -145.250     109.248
  H       22.735    -143.598     109.798

 6  7  8  9  10  11  12  13  14  15  16  26  30  31  32  33  35 0
 6-311+G(2d,p)
 ****
 37  38 0
 6-311+G(2d,p)
 ****
 1  2  3  4  5  17  18  19  20  21  22  23  24  25 0
 3-21G
 ****
 27  28  29  34  36  39  40  41  42  43  44  45  46 0
 3-21G
 ****


