%nproc=1
%NoSave
%Mem=1900MB
#P OB98/GEN NMR

erre ene a

0 1
  C      276.266    -325.178    -161.626
  O      276.150    -326.149    -162.648
  H      275.352    -324.580    -161.568
  H      276.412    -325.688    -160.670
  H      277.124    -324.529    -161.818
  P      275.937    -325.607    -164.144
  C      274.205    -324.032    -165.281
  O      274.593    -324.729    -164.101
  C      272.689    -324.057    -165.414
  O      272.230    -325.398    -165.704
  C      271.939    -323.626    -164.155
  O      271.870    -322.219    -164.026
  C      270.570    -324.225    -164.431
  O      269.863    -323.403    -165.376
  C      270.938    -325.570    -165.063
  N      268.282    -329.137    -162.529
  C      267.900    -328.180    -163.402
  N      268.668    -327.268    -164.030
  C      269.959    -327.407    -163.676
  C      270.495    -328.326    -162.792
  C      269.592    -329.232    -162.204
  N      269.974    -330.201    -161.301
  N      271.857    -328.138    -162.651
  C      272.137    -327.143    -163.469
  N      271.025    -326.657    -164.104
  O      275.492    -326.912    -164.958
  O      277.110    -324.921    -164.759
  H      269.797    -322.513    -164.979
  H      275.648    -326.781    -165.913
  H      266.837    -328.147    -163.626
  H      273.128    -326.738    -163.636
  H      270.226    -325.879    -165.841
  H      269.947    -324.292    -163.537
  H      272.360    -324.095    -163.255
  H      272.412    -323.420    -166.268
  H      274.655    -324.523    -166.148
  H      269.233    -330.670    -160.801
  H      270.918    -330.178    -160.941
  H      274.570    -323.001    -165.223
  P      272.005    -321.608    -162.546
  C      270.515    -321.702    -160.415
  O      270.606    -321.904    -161.823
  O      271.966    -320.030    -162.805
  O      273.225    -322.034    -161.803
  H      272.435    -319.550    -162.093
  H      269.526    -321.940    -160.084
  H      270.731    -320.679    -160.187
  H      271.220    -322.335    -159.918

 6  7  8  9  10  11  12  13  14  15  25  28  32  33  34  35 0
 6-311+G(2d,p)
 ****
 36  39  40 0
 6-311+G(2d,p)
 ****
 1  2  3  4  5  16  17  18  19  20  21  22  23  24 0
 3-21G
 ****
 26  27  29  30  31  37  38  41  42  43  44  45  46  47 0
 3-21G
 ****
 48 0
 3-21G
 ****


