%nproc=1
%NoSave
%Mem=1900MB
#P OB98/GEN NMR

erre ene a

0 1
  C       13.758     268.880     -61.592
  O       14.387     268.904     -60.325
  H       14.468     268.496     -62.329
  H       13.458     269.890     -61.883
  H       12.883     268.222     -61.567
  P       13.508     269.464     -59.102
  C       14.852     271.675     -58.892
  O       13.602     271.065     -59.183
  C       15.139     272.804     -59.879
  O       15.267     272.286     -61.224
  C       14.063     273.884     -59.930
  O       14.236     274.827     -58.885
  C       14.308     274.482     -61.308
  O       15.404     275.421     -61.290
  C       14.666     273.238     -62.139
  N       12.454     272.519     -66.622
  C       13.645     273.140     -66.306
  N       14.323     273.699     -67.334
  N       14.126     273.217     -65.092
  C       13.324     272.644     -64.164
  C       12.129     271.984     -64.354
  C       11.625     271.881     -65.709
  O       10.610     271.289     -66.061
  N       11.624     271.523     -63.165
  C       12.487     271.933     -62.256
  N       13.528     272.632     -62.813
  O       14.396     269.111     -57.815
  O       12.132     268.901     -58.992
  H       15.474     275.845     -62.163
  H       13.804     268.952     -57.054
  H       12.146     272.479     -67.578
  H       12.405     271.752     -61.195
  H       15.410     273.462     -62.915
  H       13.436     275.027     -61.673
  H       13.860     273.958     -68.195
  H       13.061     273.436     -59.900
  H       15.187     274.175     -67.107
  H       16.109     273.240     -59.608
  H       15.642     270.920     -58.970
  H       14.833     272.067     -57.870
  P       13.010     275.047     -57.872
  C       12.413     277.249     -59.129
  O       11.960     275.996     -58.629
  O       13.628     276.010     -56.750
  O       12.446     273.792     -57.293
  H       13.069     275.990     -55.949
  H       11.600     277.759     -59.603
  H       13.196     277.087     -59.840
  H       12.783     277.843     -58.320

 6  7  8  9  10  11  12  13  14  15  26  29  33  34 0
 6-311+G(2d,p)
 ****
 36  38  39  40  41 0
 6-311+G(2d,p)
 ****
 1  2  3  4  5  16  17  18  19  20  21  22  23  24  25 0
 3-21G
 ****
 27  28  30  31  32  35  37  42  43  44  45  46  47 0
 3-21G
 ****
 48  49 0
 3-21G
 ****


