%nproc=1
%NoSave
%Mem=1900MB
#P OB98/GEN NMR

erre ene a

0 1
  C     -521.142     160.317      27.786
  O     -521.158     159.516      28.953
  H     -520.392     161.103      27.909
  H     -522.123     160.782      27.636
  H     -520.882     159.711      26.912
  P     -522.185     158.280      28.966
  C     -524.283     159.702      29.552
  O     -523.622     158.884      28.593
  C     -525.750     159.296      29.648
  O     -526.446     159.689      28.445
  C     -525.969     157.794      29.777
  O     -525.738     157.323      31.087
  C     -527.418     157.670      29.333
  O     -528.323     157.951      30.411
  C     -527.531     158.751      28.251
  N     -530.264     157.712      24.062
  C     -530.577     158.358      25.205
  N     -529.784     158.603      26.275
  C     -528.545     158.133      26.061
  C     -528.079     157.463      24.942
  C     -529.000     157.251      23.904
  N     -528.689     156.576      22.746
  N     -526.757     157.103      25.111
  C     -526.424     157.555      26.303
  N     -527.474     158.187      26.912
  O     -522.308     157.933      30.525
  O     -521.761     157.098      28.161
  H     -528.203     157.234      31.064
  H     -521.744     157.165      30.732
  H     -531.601     158.708      25.284
  H     -525.452     157.444      26.769
  H     -528.466     159.320      28.325
  H     -527.633     156.665      28.972
  H     -525.334     157.262      29.055
  H     -526.208     159.827      30.497
  H     -524.214     160.749      29.244
  H     -523.786     159.585      30.521
  H     -529.418     156.403      22.074
  H     -527.782     156.131      22.668
  P     -525.078     155.868      31.256
  C     -527.336     154.735      31.904
  O     -526.237     154.787      31.004
  O     -524.789     155.758      32.826
  O     -523.843     155.654      30.444
  H     -523.957     155.252      32.973
  H     -528.013     153.966      31.596
  H     -527.842     155.678      31.903
  H     -526.980     154.522      32.890

 6  7  8  9  10  11  12  13  14  15  25  28  32  33  34  35 0
 6-311+G(2d,p)
 ****
 36  37  40 0
 6-311+G(2d,p)
 ****
 1  2  3  4  5  16  17  18  19  20  21  22  23  24 0
 3-21G
 ****
 26  27  29  30  31  38  39 41  42  43  44  45  46  47  48 0
 3-21G
 ****


