%nproc=1
%NoSave
%Mem=1900MB
#P OB98/GEN NMR

erre ene a

0 1
  C      -47.996    -290.020     -11.730
  O      -46.892    -289.143     -11.686
  H      -48.491    -290.009     -10.756
  H      -47.648    -291.036     -11.936
  H      -48.717    -289.718     -12.494
  P      -46.271    -288.617     -13.062
  C      -44.058    -288.158     -11.815
  O      -44.672    -288.729     -12.964
  C      -42.554    -288.425     -11.786
  O      -42.315    -289.833     -11.577
  C      -41.866    -288.051     -13.102
  O      -41.461    -286.696     -13.189
  C      -40.659    -288.985     -13.103
  O      -39.540    -288.393     -12.423
  C      -41.161    -290.217     -12.339
  N      -39.576    -294.516     -14.606
  C      -38.834    -293.575     -13.917
  N      -37.504    -293.797     -13.861
  N      -39.358    -292.516     -13.356
  C      -40.682    -292.380     -13.581
  C      -41.519    -293.235     -14.265
  C      -40.946    -294.442     -14.818
  O      -41.562    -295.314     -15.422
  N      -42.802    -292.745     -14.322
  C      -42.718    -291.560     -13.753
  N      -41.473    -291.330     -13.216
  O      -46.510    -287.032     -12.996
  O      -46.880    -289.191     -14.305
  H      -38.739    -288.899     -12.663
  H      -46.640    -286.684     -13.897
  H      -39.124    -295.325     -14.990
  H      -43.534    -290.853     -13.661
  H      -40.411    -290.576     -11.624
  H      -40.329    -289.196     -14.124
  H      -37.039    -294.547     -14.346
  H      -42.498    -288.311     -13.957
  H      -36.902    -293.038     -13.532
  H      -42.108    -287.894     -10.936
  H      -44.536    -288.617     -10.948
  H      -44.257    -287.084     -11.771
  P      -41.256    -285.990     -14.608
  C      -40.279    -283.908     -13.342
  O      -40.208    -284.800     -14.433
  O      -42.644    -285.230     -14.838
  O      -40.925    -286.907     -15.739
  H      -43.229    -285.748     -15.423
  H      -39.488    -283.191     -13.415
  H      -40.181    -284.455     -12.427
  H      -41.222    -283.402     -13.356

 6  7  8  9  10  11  12  13  14  15  26  29  33  34 0
 6-311+G(2d,p)
 ****
 36  38  39  40  41 0
 6-311+G(2d,p)
 ****
 1  2  3  4  5  16  17  18  19  20  21  22  23  24  25 0
 3-21G
 ****
 27  28  30  31  32  35  37  42  43  44  45  46  47 0
 3-21G
 ****
 48  49 0
 3-21G
 ****


