%nproc=1
%NoSave
%Mem=1900MB
#P OB98/GEN NMR

erre ene a

0 1
  C     -280.383    -107.166    -202.388
  O     -280.791    -106.112    -203.243
  P     -280.467    -104.605    -202.788
  C     -283.018    -104.180    -202.501
  O     -281.725    -104.105    -201.928
  C     -283.741    -102.831    -202.380
  O     -283.928    -102.535    -200.969
  C     -282.986    -101.641    -202.994
  O     -283.978    -100.728    -203.479
  C     -282.274    -101.031    -201.798
  O     -281.912     -99.670    -202.011
  C     -283.315    -101.252    -200.709
  N     -282.542     -98.542    -196.501
  C     -283.114     -98.167    -197.709
  N     -283.594     -96.911    -197.773
  N     -283.203     -98.953    -198.747
  C     -282.688    -100.188    -198.525
  C     -282.064    -100.662    -197.397
  C     -282.004     -99.794    -196.242
  O     -281.586    -100.115    -195.126
  N     -281.590    -101.936    -197.579
  C     -282.003    -102.261    -198.793
  N     -282.711    -101.244    -199.385
  O     -280.591    -103.783    -204.160
  O     -279.142    -104.403    -202.116
  H     -281.764     -99.260    -201.139
  H     -279.719    -103.691    -204.592
  H     -282.522     -97.896    -195.729
  H     -281.826    -103.204    -199.284
  H     -284.102    -100.486    -200.713
  H     -281.356    -101.596    -201.593
  H     -283.591     -96.254    -197.000
  H     -282.299    -101.927    -203.798
  H     -284.052     -96.621    -198.635
  H     -284.735    -102.929    -202.828
  H     -283.602    -104.934    -201.965
  H     -282.944    -104.482    -203.553
  P     -283.756    -100.087    -204.934
  C     -282.469     -98.068    -203.938
  O     -282.469     -99.144    -204.861
  O     -284.971     -99.038    -205.048
  O     -283.791    -101.064    -206.063
  H     -285.251     -98.969    -205.980
  H     -281.433     -97.790    -203.722
  H     -282.967     -98.341    -203.007
  H     -282.978     -97.212    -204.386
  H     -280.665    -108.104    -202.819
  H     -280.856    -107.055    -201.435
  H     -279.321    -107.135    -202.265

 3  4  5  6  7  8  9  10  11  12  23  26  30  31 0
 6-311+G(2d,p)
 ****
 33  35  36  37  38 0
 6-311+G(2d,p)
 ****
 1  2  13  14  15  16  17  18  19  20  21  22  24  25 0
 3-21G
 ****
 27  28  29  32  34  39  40  41  42  43  44  45  46  47  48  49 0
 3-21G
 ****


