%nproc=1
%NoSave
%Mem=1900MB
#P OB98/GEN NMR

erre ene a

0 1
  C     -431.554      94.665    -453.768
  O     -431.963      93.403    -454.265
  P     -430.909      92.441    -454.987
  C     -431.335      90.015    -454.249
  O     -430.593      91.209    -454.009
  C     -431.928      89.486    -452.951
  O     -432.914      90.404    -452.423
  C     -432.663      88.158    -453.098
  O     -431.777      87.077    -453.279
  C     -433.469      88.128    -451.802
  O     -432.655      87.685    -450.708
  C     -433.838      89.620    -451.629
  N     -435.220      89.893    -451.994
  C     -436.199      89.357    -451.147
  O     -435.879      88.627    -450.207
  N     -437.514      89.656    -451.392
  C     -437.836      90.321    -452.456
  N     -439.149      90.638    -452.616
  C     -436.846      90.769    -453.462
  C     -435.565      90.542    -453.153
  O     -429.701      93.124    -455.544
  O     -431.758      91.749    -456.158
  H     -431.264      91.837    -456.999
  H     -432.438      86.748    -450.880
  H     -437.171      91.259    -454.368
  H     -434.772      90.854    -453.819
  H     -433.679      89.929    -450.593
  H     -434.328      87.451    -451.862
  H     -433.352      88.221    -453.949
  H     -431.119      89.394    -452.212
  H     -439.800      90.331    -451.905
  H     -430.661      89.267    -454.680
  H     -439.456      91.404    -453.212
  H     -432.128      90.221    -454.980
  P     -432.084      86.086    -454.504
  C     -429.813      86.433    -455.698
  O     -431.218      86.585    -455.751
  O     -433.591      86.452    -454.911
  O     -431.948      84.630    -454.175
  H     -434.062      85.644    -455.182
  H     -429.412      86.485    -456.711
  H     -429.527      85.476    -455.250
  H     -429.383      87.254    -455.110
  H     -432.391      95.161    -453.322
  H     -431.175      95.259    -454.573
  H     -430.788      94.528    -453.034

 3  4  5  6  7  8  9  10  11  12  13  24  27  28  29  30  32 0
 6-311+G(2d,p)
 ****
 34  35 0
 6-311+G(2d,p)
 ****
 1  2  14  15  16  17  18  19  20  21  22  23  25  26 0
 3-21G
 ****
 31  33  36  37  38  39  40  41  42  43  44  45  46 0
 3-21G
 ****


