%nproc=1
%NoSave
%Mem=1900MB
#P OB98/GEN NMR

erre ene a

0 1
  C     -667.077     680.316    -129.387
  O     -666.476     679.298    -130.159
  H     -667.965     679.932    -128.876
  H     -666.360     680.660    -128.637
  H     -667.351     681.165    -130.025
  P     -667.412     678.588    -131.256
  C     -668.522     676.861    -129.668
  O     -668.694     678.027    -130.464
  C     -669.779     676.003    -129.712
  O     -670.855     676.660    -129.002
  C     -670.326     675.746    -131.115
  O     -669.596     674.724    -131.788
  C     -671.745     675.300    -130.782
  O     -671.738     673.917    -130.392
  C     -672.101     676.188    -129.582
  N     -676.317     677.815    -132.025
  C     -675.787     676.580    -131.867
  N     -674.660     676.224    -131.221
  C     -674.062     677.300    -130.672
  C     -674.489     678.616    -130.746
  C     -675.671     678.865    -131.464
  N     -676.196     680.134    -131.630
  N     -673.633     679.445    -130.052
  C     -672.700     678.643    -129.570
  N     -672.918     677.339    -129.924
  O     -666.605     677.257    -131.635
  O     -667.715     679.406    -132.466
  H     -671.366     673.414    -131.149
  H     -666.732     677.068    -132.584
  H     -676.345     675.771    -132.333
  H     -671.866     678.961    -128.955
  H     -672.626     675.620    -128.804
  H     -672.432     675.394    -131.628
  H     -670.362     676.665    -131.703
  H     -669.563     675.058    -129.199
  H     -668.326     677.155    -128.629
  H     -677.133     680.220    -131.977
  H     -675.704     680.907    -131.198
  H     -667.664     676.300    -130.046
  P     -669.405     674.879    -133.371
  C     -670.938     672.898    -134.042
  O     -670.750     674.306    -134.034
  O     -668.319     673.749    -133.714
  O     -668.966     676.232    -133.824
  H     -667.834     673.997    -134.529
  H     -671.871     672.665    -134.512
  H     -670.945     672.533    -133.036
  H     -670.140     672.435    -134.584

 6  7  8  9  10  11  12  13  14  15  25  28  32  33  34  35 0
 6-311+G(2d,p)
 ****
 36  39  40 0
 6-311+G(2d,p)
 ****
 1  2  3  4  5  16  17  18  19  20  21  22  23  24 0
 3-21G
 ****
 26  27  29  30  31  37  38  41  42  43  44  45  46  47  48 0
 3-21G
 ****


