%nproc=1
%NoSave
%Mem=1900MB
#P OB98/GEN NMR

erre ene a

0 1
  C      -29.915     -81.171      68.983
  O      -29.449     -80.249      68.020
  H      -29.414     -82.130      68.825
  H      -30.990     -81.316      68.858
  H      -29.701     -80.823      69.997
  P      -29.736     -78.695      68.292
  C      -30.485     -78.366      65.830
  O      -29.617     -77.951      66.874
  C      -29.762     -78.314      64.483
  O      -28.899     -79.488      64.374
  C      -30.702     -78.310      63.264
  O      -30.137     -77.471      62.248
  C      -30.635     -79.747      62.783
  O      -30.980     -79.875      61.410
  C      -29.178     -80.081      63.091
  N      -27.637     -83.893      60.213
  C      -27.574     -82.529      60.007
  N      -27.078     -82.108      58.821
  N      -27.969     -81.646      60.885
  C      -28.426     -82.201      62.036
  C      -28.543     -83.531      62.362
  C      -28.118     -84.499      61.372
  O      -28.169     -85.718      61.487
  N      -29.111     -83.683      63.602
  C      -29.355     -82.449      64.013
  N      -28.957     -81.516      63.096
  O      -28.418     -78.229      69.074
  O      -30.976     -78.399      69.067
  H      -30.887     -80.816      61.156
  H      -28.572     -78.270      70.036
  H      -27.335     -84.530      59.495
  H      -29.829     -82.183      64.947
  H      -28.484     -79.653      62.357
  H      -31.317     -80.372      63.373
  H      -26.727     -82.725      58.107
  H      -31.722     -77.981      63.491
  H      -26.990     -81.110      58.673
  H      -29.108     -77.434      64.469
  H      -31.352     -77.698      65.794
  H      -30.835     -79.383      66.035
  P      -31.122     -76.863      61.138
  C      -29.386     -76.992      59.202
  O      -30.238     -76.173      59.990
  O      -31.786     -75.615      61.890
  O      -32.157     -77.826      60.656
  H      -32.708     -75.503      61.592
  H      -28.869     -76.386      58.488
  H      -29.971     -77.727      58.690
  H      -28.675     -77.481      59.835

 6  7  8  9  10  11  12  13  14  15  26  29  33  34 0
 6-311+G(2d,p)
 ****
 36  38  39  40  41 0
 6-311+G(2d,p)
 ****
 1  2  3  4  5  16  17  18  19  20  21  22  23  24  25 0
 3-21G
 ****
 27  28  30  31  32  35  37  42  43  44  45  46  47 0
 3-21G
 ****
 48  49 0
 3-21G
 ****


