%nproc=1
%NoSave
%Mem=1900MB
#P OB98/GEN NMR

erre ene a

0 1
  C      323.754      39.235    -742.867
  O      323.311      39.788    -744.101
  P      324.287      40.760    -744.911
  C      324.858      38.838    -746.535
  O      325.373      39.859    -745.682
  C      325.999      38.047    -747.186
  O      326.854      37.437    -746.194
  C      325.518      36.906    -748.055
  O      324.990      37.393    -749.283
  C      326.773      36.059    -748.182
  O      327.651      36.581    -749.201
  C      327.423      36.251    -746.789
  N      327.264      35.095    -745.921
  C      328.220      34.075    -746.065
  O      329.096      34.174    -746.928
  N      328.135      32.972    -745.259
  C      327.184      32.880    -744.377
  N      327.150      31.769    -743.595
  C      326.155      33.924    -744.196
  C      326.249      34.991    -744.993
  O      324.856      41.905    -744.134
  O      323.359      41.283    -746.116
  H      328.445      36.017    -749.180
  H      323.649      42.179    -746.369
  H      325.382      33.810    -743.442
  H      325.540      35.803    -744.926
  H      328.504      36.444    -746.885
  H      326.557      35.027    -748.439
  H      324.742      36.328    -747.522
  H      326.601      38.755    -747.784
  H      327.868      31.066    -743.751
  H      324.230      39.294    -747.313
  H      326.491      31.636    -742.850
  H      324.207      38.181    -745.946
  P      323.394      37.463    -749.433
  C      323.152      40.039    -749.657
  O      322.918      38.888    -748.874
  O      322.875      36.431    -748.320
  O      322.871      37.099    -750.785
  H      322.068      35.993    -748.625
  H      322.509      40.845    -749.302
  H      322.943      39.851    -750.712
  H      324.196      40.351    -749.546
  H      322.986      38.612    -742.459
  H      323.974      40.026    -742.181
  H      324.635      38.651    -743.034

 3  4  5  6  7  8  9  10  11  12  13  23  27  28  29  30  32 0
 6-311+G(2d,p)
 ****
 34  35 0
 6-311+G(2d,p)
 ****
 1  2  14  15  16  17  18  19  20  21  22  24  25  26 0
 3-21G
 ****
 31  33  36  37  38  39  40  41  42  43  44  45  46 0
 3-21G
 ****


