%nproc=1
%NoSave
%Mem=1900MB
#P OB98/GEN NMR

erre ene a

0 1
  C       91.646      91.596     -61.292
  O       92.337      92.828     -61.388
  P       92.286      93.627     -62.775
  C       90.590      95.504     -62.176
  O       90.837      94.306     -62.893
  C       90.243      96.640     -63.141
  O       89.863      97.823     -62.376
  C       91.398      97.047     -64.068
  O       90.825      97.452     -65.319
  C       91.976      98.257     -63.358
  O       92.759      99.082     -64.208
  C       90.689      98.908     -62.844
  N       90.932      99.895     -61.792
  C       90.724     101.232     -62.111
  O       90.353     101.628     -63.215
  N       91.019     102.133     -61.123
  C       91.574     101.843     -59.911
  O       91.924     102.707     -59.116
  C       91.771     100.413     -59.629
  C       91.446      99.519     -60.566
  O       92.250      92.460     -63.869
  O       93.426      94.565     -62.996
  H       92.938      99.911     -63.728
  H       93.136      92.326     -64.253
  H       90.864     103.106     -61.333
  H       92.190     100.147     -58.668
  H       91.601      98.459     -60.393
  H       90.150      99.386     -63.672
  H       92.614      97.923     -62.532
  H       92.135      96.254     -64.224
  H       89.368      96.342     -63.731
  H       91.483      95.774     -61.611
  H       89.776      95.343     -61.461
  P       91.752      97.374     -66.629
  C       90.598      95.197     -67.500
  O       91.783      95.839     -67.081
  O       93.199      97.617     -65.985
  O       91.390      98.372     -67.681
  H       93.329      97.122     -65.160
  H       89.933      95.885     -68.029
  H       90.079      94.791     -66.629
  H       90.859      94.375     -68.171
  H       91.776      91.190     -60.311
  H       92.036      90.911     -62.016
  H       90.604      91.756     -61.477

 3  4  5  6  7  8  9  10  11  12  13  23  28  29  30  31  32 0
 6-311+G(2d,p)
 ****
 33  34 0
 6-311+G(2d,p)
 ****
 1  2  14  15  16  17  18  19  20  21  22  24  25  26 0
 3-21G
 ****
 27  35  36  37  38  39  40  41  42  43  44  45 0
 3-21G
 ****


