%nproc=1
%NoSave
%Mem=1900MB
#P OB98/GEN NMR

erre ene a

0 1
  C      475.330    -304.045    -266.816
  O      476.405    -303.562    -266.029
  P      477.586    -304.599    -265.689
  C      479.218    -302.572    -265.853
  O      478.787    -303.718    -265.101
  C      479.863    -301.543    -264.925
  O      478.847    -300.766    -264.272
  C      480.699    -302.159    -263.812
  O      481.946    -302.588    -264.300
  C      480.789    -300.988    -262.835
  O      481.887    -300.123    -263.164
  C      479.434    -300.274    -263.038
  N      478.524    -300.459    -261.915
  C      478.983    -299.958    -260.683
  O      480.097    -299.433    -260.601
  N      478.174    -300.120    -259.585
  C      477.039    -300.719    -259.686
  N      476.272    -300.835    -258.561
  C      476.523    -301.262    -260.963
  C      477.322    -301.105    -262.032
  O      478.111    -305.039    -267.134
  O      477.171    -305.771    -264.854
  H      482.683    -300.711    -263.207
  H      478.510    -305.932    -267.104
  H      475.572    -301.750    -261.005
  H      477.031    -301.471    -263.002
  H      479.588    -299.205    -263.180
  H      480.951    -301.333    -261.803
  H      480.163    -302.996    -263.353
  H      480.482    -300.869    -265.540
  H      476.648    -300.456    -257.704
  H      478.340    -302.116    -266.328
  H      475.357    -301.259    -258.552
  H      479.916    -302.901    -266.630
  P      482.885    -303.432    -263.321
  C      483.226    -305.158    -265.198
  O      483.854    -304.267    -264.287
  O      481.882    -304.575    -262.784
  O      483.530    -302.685    -262.205
  H      482.317    -305.089    -262.087
  H      483.980    -305.548    -265.884
  H      482.446    -304.645    -265.766
  H      482.788    -306.010    -264.638
  H      474.618    -303.261    -266.968
  H      474.858    -304.862    -266.312
  H      475.702    -304.377    -267.763

 3  4  5  6  7  8  9  10  11  12  13  21  23  27  28  29  30  32 0
 6-311+G(2d,p)
 ****
 34  35 0
 6-311+G(2d,p)
 ****
 1  2  14  15  16  17  18  19  20  22  24  25  26 0
 3-21G
 ****
 31  33  36  37  38  39  40  41  42  43  44  45  46 0
 3-21G
 ****


