%nproc=1
%NoSave
%Mem=1900MB
#P OB98/GEN NMR

erre ene a

0 1
  C     1509.740     -55.489    -711.984
  O     1508.435     -56.033    -712.088
  H     1510.248     -55.972    -711.136
  H     1509.686     -54.411    -711.791
  H     1510.310     -55.677    -712.900
  P     1507.580     -55.642    -713.395
  C     1507.639     -57.928    -714.632
  O     1506.859     -56.997    -713.878
  C     1506.984     -59.319    -714.546
  O     1507.343     -59.911    -713.248
  C     1505.452     -59.297    -714.650
  O     1505.026     -60.460    -715.354
  C     1505.020     -59.422    -713.184
  O     1503.707     -59.931    -713.020
  C     1506.108     -60.344    -712.630
  N     1506.201     -60.268    -711.175
  C     1505.538     -61.238    -710.436
  O     1504.934     -62.200    -710.905
  N     1505.594     -61.076    -709.070
  C     1506.200     -60.073    -708.392
  O     1506.177     -59.974    -707.171
  C     1506.876     -59.076    -709.226
  C     1506.876     -59.210    -710.557
  O     1508.713     -55.392    -714.498
  O     1506.673     -54.476    -713.240
  H     1509.000     -54.458    -714.500
  H     1503.097     -59.355    -713.546
  H     1505.089     -61.783    -708.524
  H     1507.380     -58.236    -708.731
  H     1507.353     -58.495    -711.208
  H     1505.928     -61.368    -712.942
  H     1505.071     -58.448    -712.702
  H     1505.051     -58.409    -715.119
  H     1507.430     -59.957    -715.326
  H     1508.652     -57.983    -714.203
  H     1507.696     -57.604    -715.671
  P     1503.504     -60.490    -715.891
  C     1504.248     -60.965    -718.350
  O     1503.549     -61.420    -717.189
  O     1503.359     -59.001    -716.449
  O     1502.534     -60.889    -714.824
  H     1504.183     -58.667    -716.836
  H     1504.179     -61.704    -719.120
  H     1505.276     -60.800    -718.105
  H     1503.812     -60.050    -718.693

 6  7  8  9  10  11  12  13  14  15  16  27  31  32  33  34  35 0
 6-311+G(2d,p)
 ****
 36  37 0
 6-311+G(2d,p)
 ****
 1  2  3  4  5  17  18  19  20  21  22  23  24  25 0
 3-21G
 ****
 26  28  29  30  38  39  40  41  42  43  44  45 0
 3-21G
 ****


