%nproc=1
%NoSave
%Mem=1900MB
#P OB98/GEN NMR

erre ene a

0 1
  C     -126.937     884.284     366.729
  O     -125.658     884.679     367.194
  P     -124.858     885.766     366.320
  C     -123.391     886.957     368.097
  O     -123.452     885.977     367.074
  C     -122.462     886.484     369.217
  O     -123.054     885.377     369.927
  C     -121.101     886.001     368.763
  O     -120.202     887.060     368.524
  C     -120.659     885.185     369.967
  O     -120.175     886.061     370.991
  C     -121.982     884.525     370.410
  N     -121.218     879.572     371.366
  C     -120.864     880.667     372.048
  N     -121.094     881.969     371.714
  C     -121.728     882.048     370.533
  C     -122.130     881.018     369.718
  C     -121.854     879.714     370.174
  N     -122.239     878.576     369.497
  N     -122.749     881.493     368.576
  C     -122.739     882.792     368.723
  N     -122.151     883.190     369.881
  O     -125.660     887.120     366.623
  O     -124.788     885.480     364.863
  H     -119.336     886.441     370.673
  H     -125.505     887.767     365.907
  H     -120.330     880.516     372.973
  H     -123.174     883.502     368.012
  H     -122.065     884.473     371.503
  H     -119.857     884.486     369.732
  H     -121.190     885.347     367.880
  H     -122.354     887.321     369.935
  H     -124.391     887.117     368.512
  H     -122.177     877.695     369.973
  H     -122.890     878.685     368.719
  H     -123.026     887.897     367.679
  P     -118.891     886.731     367.648
  C     -118.855     889.162     366.712
  O     -118.164     888.154     367.417
  O     -119.499     886.380     366.212
  O     -118.051     885.632     368.211
  H     -118.884     885.786     365.727
  H     -118.367     890.125     366.923
  H     -119.896     889.233     367.038
  H     -118.820     888.958     365.639
  H     -127.353     883.562     367.400
  H     -126.845     883.853     365.754
  H     -127.579     885.139     366.681

 3  4  5  6  7  8  9  10  11  12  22  25  29  30  31  32 0
 6-311+G(2d,p)
 ****
 33  36  37 0
 6-311+G(2d,p)
 ****
 1  2  13  14  15  16  17  18  19  20  21  23  24  26 0
 3-21G
 ****
 27  28  34  35  38  39  40  41  42  43  44  45  46  47  48 0
 3-21G
 ****


