%nproc=1
%NoSave
%Mem=1900MB
#P OB98/GEN NMR

erre ene a

0 1
  C      369.599      -5.202    -100.493
  O      369.702      -4.672    -101.799
  H      369.152      -6.196    -100.550
  H      368.965      -4.565     -99.872
  H      370.593      -5.288    -100.045
  P      370.243      -3.168    -101.930
  C      369.607      -0.959    -100.717
  O      369.171      -2.223    -101.204
  C      368.617       0.116    -101.138
  O      367.276      -0.266    -100.746
  C      368.852       1.470    -100.478
  O      369.901       2.204    -101.087
  C      367.500       2.132    -100.679
  O      367.393       2.745    -101.972
  C      366.525       0.947    -100.545
  N      365.838       0.960     -99.258
  C      364.742       1.813     -99.163
  O      364.354       2.516    -100.094
  N      364.119       1.857     -97.943
  C      364.511       1.186     -96.823
  O      363.939       1.313     -95.744
  C      365.683       0.312     -96.971
  C      366.289       0.240     -98.163
  O      370.049      -2.847    -103.489
  O      371.656      -2.969    -101.491
  H      370.913      -2.850    -103.936
  H      366.441       2.904    -102.118
  H      363.321       2.463     -97.860
  H      366.020      -0.235     -96.101
  H      367.162      -0.386     -98.300
  H      365.767       0.983    -101.335
  H      367.329       2.908     -99.940
  H      369.031       1.344     -99.403
  H      368.645       0.210    -102.232
  H      370.592      -0.722    -101.134
  H      369.695      -1.013     -99.623
  P      370.979       2.905    -100.132
  C      370.768       4.391     -97.970
  O      370.130       3.717     -99.039
  O      371.560       4.028    -101.112
  O      371.992       1.956     -99.588
  H      370.906       4.294    -101.785
  H      370.031       4.867     -97.358
  H      371.437       5.129     -98.362
  H      371.319       3.687     -97.382

 6  7  8  9  10  11  12  13  14  15  16  27  31  32  33  34  35 0
 6-311+G(2d,p)
 ****
 36  37 0
 6-311+G(2d,p)
 ****
 1  2  3  4  5  17  18  19  20  21  22  23  24  25 0
 3-21G
 ****
 26  28  29  30  38  39  40  41  42  43  44  45 0
 3-21G
 ****


