%nproc=1
%NoSave
%Mem=1900MB
#P OB98/GEN NMR

erre ene a

0 1
  C       95.844      99.314     -33.348
  O       96.618      98.652     -34.329
  P       96.560      97.061     -34.480
  C       98.723      97.000     -33.110
  O       97.433      96.429     -33.288
  C       99.780      95.919     -32.882
  O       99.615      95.369     -31.547
  C       99.722      94.746     -33.870
  O      101.070      94.311     -34.074
  C       98.958      93.689     -33.090
  O       99.172      92.373     -33.586
  C       99.506      93.937     -31.689
  N       98.333      89.794     -28.935
  C       99.215      89.986     -29.937
  N       99.451      91.113     -30.638
  C       98.663      92.112     -30.210
  C       97.695      92.059     -29.220
  C       97.550      90.831     -28.550
  N       96.679      90.628     -27.502
  N       97.052      93.278     -29.110
  C       97.622      94.047     -30.013
  N       98.644      93.405     -30.657
  O       96.892      96.537     -35.838
  O       95.060      96.687     -34.068
  H       98.897      92.348     -34.522
  H       94.546      96.452     -34.866
  H       99.816      89.121     -30.209
  H       97.339      95.065     -30.243
  H      100.504      93.505     -31.554
  H       97.883      93.899     -33.142
  H       99.246      94.991     -34.824
  H      100.768      96.397     -32.913
  H       98.685      97.657     -32.236
  H       96.753      89.752     -27.009
  H       96.286      91.436     -27.026
  H       98.986      97.605     -33.985
  P      101.525      93.764     -35.510
  C      101.323      91.346     -34.697
  O      100.903      92.297     -35.658
  O      102.984      93.873     -35.804
  O      100.650      94.634     -36.536
  H      101.044      94.581     -37.426
  H      102.302      90.951     -34.982
  H      100.603      90.525     -34.670
  H      101.390      91.793     -33.702
  H       96.020     100.368     -33.406
  H       96.120      98.959     -32.377
  H       94.806      99.116     -33.519

 3  4  5  6  7  8  9  10  11  12  22  25  29  30  31  32 0
 6-311+G(2d,p)
 ****
 33  36  37 0
 6-311+G(2d,p)
 ****
 1  2  13  14  15  16  17  18  19  20  21  23  24  26 0
 3-21G
 ****
 27  28  34  35  38  39  40  41  42  43  44  45  46  47  48 0
 3-21G
 ****


