%nproc=1
%NoSave
%Mem=1900MB
#P OB98/GEN NMR

erre ene a

0 1
  C      144.406    -615.677     308.424
  O      143.058    -615.911     308.853
  P      142.469    -614.885     309.938
  C      140.287    -614.499     308.581
  O      140.870    -614.906     309.814
  C      139.078    -615.365     308.212
  O      139.540    -616.694     307.844
  C      138.038    -615.547     309.322
  O      136.738    -615.555     308.735
  C      138.318    -616.950     309.849
  O      137.185    -617.513     310.504
  C      138.721    -617.635     308.547
  N      138.547    -622.315     310.503
  C      137.550    -621.371     310.366
  N      136.321    -621.727     310.835
  N      137.711    -620.205     309.818
  C      138.987    -619.991     309.367
  C      140.065    -620.849     309.447
  C      139.869    -622.126     310.088
  O      140.725    -622.976     310.295
  N      141.186    -620.290     308.875
  C      140.781    -619.093     308.466
  N      139.458    -618.869     308.761
  O      142.887    -613.452     309.350
  O      143.015    -615.082     311.319
  H      136.486    -617.574     309.824
  H      143.412    -612.959     310.012
  H      138.364    -623.199     310.949
  H      141.418    -618.355     307.989
  H      137.842    -617.870     307.936
  H      139.147    -616.893     310.555
  H      136.110    -622.636     311.213
  H      138.081    -614.778     310.104
  H      135.561    -621.064     310.699
  H      138.609    -614.920     307.317
  H      141.037    -614.570     307.796
  H      139.985    -613.443     308.667
  P      135.856    -614.212     308.915
  C      135.092    -614.141     306.412
  O      134.717    -614.303     307.779
  O      136.830    -613.061     308.371
  O      135.387    -613.965     310.292
  H      136.623    -612.215     308.793
  H      136.173    -614.190     306.264
  H      134.719    -613.173     306.051
  H      134.620    -614.942     305.834
  H      144.686    -616.419     307.706
  H      145.063    -615.731     309.267
  H      144.475    -614.706     307.979

 3  4  5  6  7  8  9  10  11  12  23  26  30  31  33  0
 6-311+G(2d,p)
 ****
 35  36  37  38 0
 6-311+G(2d,p)
 ****
 1  2  13  14  15  16  17  18  19  20  21  22  24  25  27  28  29 0
 3-21G
 ****
 32  34  39  40  41  42  43  44  45  46  47  48  49 0
 3-21G
 ****


