%nproc=1
%NoSave
%Mem=1900MB
#P OB98/GEN NMR

erre ene a

0 1
  C      377.296    -898.340    -386.247
  O      377.455    -898.630    -384.867
  P      378.948    -898.650    -384.273
  C      378.644    -896.410    -382.983
  O      379.358    -897.130    -383.976
  C      379.601    -895.590    -382.118
  O      380.633    -896.480    -381.606
  C      380.316    -894.450    -382.853
  O      380.527    -893.410    -381.892
  C      381.651    -895.060    -383.219
  O      382.660    -894.080    -383.474
  C      381.912    -895.940    -382.010
  N      386.520    -897.850    -381.167
  C      385.960    -896.650    -380.756
  N      386.726    -895.880    -379.947
  N      384.763    -896.250    -381.086
  C      384.115    -897.120    -381.883
  C      384.569    -898.320    -382.384
  C      385.874    -898.780    -381.973
  O      386.371    -899.870    -382.240
  N      383.646    -898.900    -383.221
  C      382.615    -898.090    -383.155
  N      382.831    -897.030    -382.326
  O      379.835    -899.030    -385.552
  O      379.168    -899.580    -383.117
  H      383.446    -894.550    -383.822
  H      379.989    -900.000    -385.588
  H      387.445    -898.120    -380.858
  H      381.678    -898.220    -383.688
  H      382.332    -895.390    -381.165
  H      381.540    -895.670    -384.135
  H      387.651    -896.140    -379.626
  H      379.765    -894.070    -383.702
  H      386.336    -895.010    -379.608
  H      379.044    -895.200    -381.253
  H      378.108    -897.110    -382.345
  H      377.898    -895.760    -383.467
  P      380.412    -891.890    -382.395
  C      378.138    -891.170    -381.400
  O      378.858    -891.540    -382.552
  O      380.923    -891.980    -383.909
  O      381.230    -890.910    -381.620
  H      381.368    -891.150    -384.157
  H      377.252    -890.590    -381.699
  H      378.735    -890.560    -380.728
  H      377.812    -892.070    -380.865
  H      376.256    -898.362    -386.498
  H      377.819    -899.071    -386.828
  H      377.693    -897.369    -386.455

 3  4  5  6  7  8  9  10  11  12  23  26  30  31 0
 6-311+G(2d,p)
 ****
 33  35  36  37  38 0
 6-311+G(2d,p)
 ****
 1  2  13  14  15  16  17  18  19  20  21  22  24  25 0
 3-21G
 ****
 27  28  29  32  34  39  40  41  42  43  44  45  46  47  48  49 0
 3-21G
 ****


