%nproc=1
%NoSave
%Mem=1900MB
#P OB98/GEN NMR

erre ene a

0 1
  C     -354.636     170.715    -423.881
  O     -353.643     169.897    -424.499
  P     -352.709     169.003    -423.546
  C     -350.270     169.137    -422.672
  O     -351.312     169.786    -423.380
  C     -348.897     169.573    -423.173
  O     -348.729     169.131    -424.557
  C     -348.668     171.091    -423.165
  O     -347.275     171.316    -422.900
  C     -348.963     171.500    -424.600
  O     -348.381     172.752    -424.934
  C     -348.409     170.296    -425.347
  N     -347.645     171.259    -430.318
  C     -346.879     171.485    -429.234
  N     -347.157     171.198    -427.944
  C     -348.352     170.618    -427.822
  C     -349.266     170.354    -428.830
  C     -348.879     170.687    -430.143
  N     -349.649     170.449    -431.249
  N     -350.412     169.773    -428.323
  C     -350.197     169.689    -427.019
  N     -348.960     170.170    -426.675
  O     -352.336     167.764    -424.490
  O     -353.342     168.542    -422.272
  H     -347.407     172.656    -424.917
  H     -352.768     166.948    -424.161
  H     -345.921     171.953    -429.430
  H     -350.901     169.303    -426.291
  H     -347.314     170.345    -425.442
  H     -350.054     171.580    -424.742
  H     -349.291     171.630    -422.432
  H     -348.127     169.068    -422.579
  H     -350.369     168.054    -422.821
  H     -349.234     170.586    -432.161
  H     -350.465     169.863    -431.148
  H     -350.369     169.341    -421.601
  P     -346.848     172.811    -422.471
  C     -345.905     174.878    -423.718
  O     -346.423     173.565    -423.817
  O     -345.452     172.579    -421.706
  O     -347.847     173.512    -421.607
  H     -345.309     173.288    -421.051
  H     -345.168     175.020    -424.514
  H     -345.420     175.054    -422.747
  H     -346.711     175.603    -423.856
  H     -355.177     171.249    -424.634
  H     -354.164     171.411    -423.220
  H     -355.312     170.098    -423.326

 3  4  5  6  7  8  9  10  11  12  22  25  29  30  31  32 0
 6-311+G(2d,p)
 ****
 33  36  37 0
 6-311+G(2d,p)
 ****
 1  2  13  14  15  16  17  18  19  20  21  23  24  26 0
 3-21G
 ****
 27  28  34  35  38  39  40  41  42  43  44  45  46  47  48 0
 3-21G
 ****


