%nproc=1
%NoSave
%Mem=1900MB
#P OB98/GEN NMR

erre ene a

0 1
  C     -130.396    -537.672     420.154
  O     -130.183    -537.849     421.562
  P     -131.317    -537.557     422.661
  C     -131.367    -537.217     425.221
  O     -130.626    -537.052     424.013
  C     -130.497    -537.753     426.359
  O     -130.092    -539.112     426.089
  C     -129.202    -536.984     426.589
  O     -129.448    -535.755     427.257
  C     -128.395    -537.996     427.387
  O     -128.762    -537.964     428.780
  C     -128.828    -539.327     426.745
  N     -127.827    -539.852     425.816
  C     -126.535    -540.019     426.312
  O     -126.260    -539.676     427.474
  N     -125.567    -540.539     425.488
  C     -125.863    -540.802     424.247
  N     -124.869    -541.329     423.473
  C     -127.189    -540.556     423.656
  C     -128.115    -540.088     424.488
  O     -132.276    -538.688     422.852
  O     -132.081    -536.257     422.124
  H     -128.113    -538.534     429.249
  H     -133.016    -536.295     422.417
  H     -127.374    -540.759     422.613
  H     -129.120    -539.884     424.140
  H     -129.013    -540.090     427.517
  H     -127.317    -537.815     427.336
  H     -128.705    -536.796     425.624
  H     -131.106    -537.757     427.274
  H     -123.966    -541.491     423.915
  H     -132.184    -537.928     425.021
  H     -124.985    -541.565     422.499
  H     -131.808    -536.252     425.498
  P     -129.255    -534.371     426.475
  C     -130.127    -532.009     426.972
  O     -129.559    -533.186     427.509
  O     -129.963    -534.266     425.167
  O     -127.668    -534.262     426.273
  H     -127.482    -533.788     425.444
  H     -130.643    -531.465     427.772
  H     -130.842    -532.243     426.176
  H     -129.335    -531.370     426.564
  H     -129.503    -537.927     419.623
  H     -130.648    -536.651     419.957
  H     -131.196    -538.306     419.832

 3  4  5  6  7  8  9  10  11  12  13  23  27  28  29  30  32 0
 6-311+G(2d,p)
 ****
 34  35 0
 6-311+G(2d,p)
 ****
 1  2  14  15  16  17  18  19  20  21  22  24  25  26 0
 3-21G
 ****
 31  33  36  37  38  39  40  41  42  43  44  45  46 0
 3-21G
 ****


