%nproc=1
%NoSave
%Mem=1900MB
#P OB98/GEN NMR

erre ene a

0 1
  C      631.405     164.622    1128.757
  O      630.483     163.778    1128.091
  H      632.255     164.020    1129.088
  H      630.941     165.086    1129.629
  H      631.771     165.396    1128.067
  P      629.088     164.400    1127.607
  C      628.065     162.377    1128.868
  O      627.997     163.216    1127.721
  C      627.389     161.026    1128.582
  O      625.949     161.252    1128.476
  C      627.848     160.356    1127.275
  O      627.736     158.933    1127.462
  C      626.799     160.845    1126.302
  O      626.826     160.117    1125.099
  C      625.548     160.760    1127.171
  N      624.435     161.526    1126.625
  C      623.756     160.953    1125.545
  O      624.122     159.864    1125.097
  N      622.701     161.636    1124.993
  C      622.406     162.812    1125.421
  N      621.363     163.453    1124.809
  C      623.122     163.484    1126.521
  C      624.120     162.788    1127.088
  O      629.109     165.096    1126.293
  O      628.670     165.386    1128.797
  H      625.982     160.258    1124.589
  H      628.830     166.313    1128.523
  H      622.843     164.482    1126.835
  H      624.707     163.186    1127.900
  H      625.216     159.706    1127.288
  H      626.989     161.900    1126.024
  H      628.875     160.627    1126.995
  H      627.552     160.366    1129.463
  H      620.905     162.955    1124.046
  H      627.560     162.888    1129.683
  H      621.049     164.387    1125.052
  H      629.119     162.207    1129.147
  P      628.965     158.019    1127.984
  C      629.908     157.411    1125.661
  O      629.313     156.931    1126.872
  O      628.747     157.457    1129.367
  O      630.240     158.997    1127.980
  H      630.841     158.727    1128.689
  H      630.091     156.588    1125.003
  H      630.833     157.899    1125.887
  H      629.245     158.105    1125.188

 6  7  8  9  10  11  12  13  14  15  16  26  30  31  32  33  35 0
 6-311+G(2d,p)
 ****
 37  38 0
 6-311+G(2d,p)
 ****
 1  2  3  4  5  17  18  19  20  21  22  23  24  25 0
 3-21G
 ****
 27  28  29  34  36  39  40  41  42  43  44  45  46 0
 3-21G
 ****


