%nproc=1
%NoSave
%Mem=1900MB
#P OB98/GEN NMR

erre ene a

0 1
  C      -88.457     763.794     645.037
  O      -88.435     764.138     643.655
  P      -87.278     763.502     642.751
  C      -87.418     762.945     640.201
  O      -87.985     762.799     641.492
  C      -88.276     762.209     639.176
  O      -88.236     760.782     639.408
  C      -89.754     762.589     639.226
  O      -89.993     763.827     638.578
  C      -90.397     761.401     638.518
  O      -90.352     761.541     637.102
  C      -89.496     760.231     638.972
  N      -90.118     759.419     640.013
  C      -91.121     758.545     639.595
  O      -91.484     758.474     638.430
  N      -91.716     757.792     640.574
  C      -91.446     757.855     641.910
  O      -92.050     757.190     642.742
  C      -90.397     758.813     642.295
  C      -89.803     759.545     641.354
  O      -86.756     762.257     643.624
  O      -86.171     764.433     642.400
  H      -90.792     760.761     636.723
  H      -85.786     762.148     643.492
  H      -92.412     757.133     640.286
  H      -90.154     758.893     643.351
  H      -89.030     760.264     641.631
  H      -89.268     759.582     638.129
  H      -91.452     761.281     638.793
  H      -90.092     762.625     640.265
  H      -87.857     762.403     638.183
  H      -86.401     762.531     640.209
  H      -87.355     764.016     639.953
  P      -91.301     764.646     639.015
  C      -91.854     767.194     639.153
  O      -90.910     766.191     638.822
  O      -91.280     764.392     640.603
  O      -92.538     764.176     638.332
  H      -90.379     764.324     640.955
  H      -92.445     766.908     640.036
  H      -92.509     767.374     638.300
  H      -91.302     768.111     639.384
  H      -89.277     764.288     645.514
  H      -87.540     764.101     645.496
  H      -88.570     762.735     645.139

 3  4  5  6  7  8  9  10  11  12  13  23  28  29  30  31  32 0
 6-311+G(2d,p)
 ****
 33  34 0
 6-311+G(2d,p)
 ****
 1  2  14  15  16  17  18  19  20  21  22  24  25  26 0
 3-21G
 ****
 27  35  36  37  38  39  40  41  42  43  44  45 0
 3-21G
 ****


