%nproc=1
%NoSave
%Mem=1900MB
#P OB98/GEN NMR

erre ene a

0 1
  C     -111.583     336.752     715.757
  O     -110.649     337.813     715.938
  P     -109.369     337.820     714.948
  C     -109.918     340.126     713.858
  O     -109.019     339.367     714.648
  C     -109.701     341.624     714.085
  O     -110.344     342.074     715.299
  C     -108.233     342.026     714.229
  O     -107.578     342.111     712.978
  C     -108.371     343.394     714.871
  O     -108.613     344.391     713.863
  C     -109.609     343.217     715.768
  N     -108.526     345.445     720.206
  C     -108.808     346.009     718.969
  N     -108.828     347.367     718.919
  N     -109.048     345.319     717.894
  C     -109.021     343.971     718.090
  C     -108.751     343.296     719.256
  C     -108.460     344.075     720.445
  O     -108.162     343.634     721.554
  N     -108.822     341.942     719.084
  C     -109.162     341.796     717.818
  N     -109.283     343.000     717.165
  O     -109.984     337.312     713.566
  O     -108.239     336.963     715.404
  H     -108.652     345.260     714.328
  H     -109.300     336.881     713.025
  H     -108.339     346.038     720.998
  H     -109.345     340.843     717.330
  H     -110.282     344.086     715.704
  H     -107.472     343.709     715.407
  H     -108.719     347.964     719.725
  H     -107.707     341.344     714.921
  H     -109.073     347.799     718.044
  H     -110.149     342.162     713.222
  H     -110.952     339.872     714.121
  H     -109.780     339.860     712.802
  P     -105.978     342.315     712.999
  C     -105.411     340.185     711.629
  O     -105.437     341.588     711.683
  O     -105.509     341.354     714.189
  O     -105.544     343.729     713.198
  H     -104.683     341.692     714.599
  H     -106.328     339.751     712.063
  H     -104.544     339.810     712.186
  H     -105.327     339.847     710.592
  H     -112.380     336.854     716.464
  H     -111.091     335.814     715.907
  H     -111.980     336.792     714.764

 3  4  5  6  7  8  9  10  11  12  23  26  30  31  33  0
 6-311+G(2d,p)
 ****
 35  36  37  38 0
 6-311+G(2d,p)
 ****
 1  2  13  14  15  16  17  18  19  20  21  22  24  25  27  28  29 0
 3-21G
 ****
 32  34  39  40  41  42  43  44  45  46  47  48  49 0
 3-21G
 ****


