%nproc=1
%NoSave
%Mem=1900MB
#P OB98/GEN NMR

erre ene a

0 1
  C      -90.902     266.796     261.122
  O      -91.828     265.924     261.729
  P      -93.403     266.004     261.503
  C      -93.817     268.103     263.003
  O      -94.064     266.726     262.775
  C      -93.867     268.433     264.504
  O      -93.575     269.841     264.678
  C      -95.266     268.187     265.089
  O      -95.263     267.573     266.371
  C      -95.928     269.555     264.971
  O      -97.044     269.726     265.833
  C      -94.747     270.492     265.219
  N      -96.346     275.273     265.844
  C      -96.184     274.281     266.792
  N      -96.676     274.542     268.021
  N      -95.616     273.126     266.538
  C      -95.273     272.965     265.238
  C      -95.384     273.876     264.216
  C      -95.980     275.158     264.513
  O      -96.248     276.025     263.682
  N      -94.998     273.342     263.012
  C      -94.683     272.095     263.304
  N      -94.865     271.811     264.637
  O      -94.067     264.780     260.966
  O      -93.512     267.153     260.371
  H      -97.646     268.976     265.686
  H      -94.269     266.922     259.800
  H      -96.864     276.111     266.081
  H      -94.348     271.355     262.586
  H      -94.577     270.649     266.289
  H      -96.298     269.658     263.948
  H      -97.247     275.358     268.203
  H      -95.824     267.473     264.468
  H      -96.797     273.754     268.649
  H      -93.091     267.861     265.023
  H      -94.604     268.651     262.472
  H      -92.854     268.401     262.573
  P      -96.222     266.431     266.936
  C      -98.022     267.847     268.091
  O      -96.929     266.966     268.270
  O      -95.239     265.296     267.489
  O      -97.164     265.853     265.930
  H      -95.600     264.418     267.275
  H      -98.227     268.345     269.042
  H      -98.905     267.276     267.792
  H      -97.794     268.603     267.336
  H      -89.911     266.537     261.432
  H      -91.115     267.803     261.415
  H      -90.976     266.711     260.058

 3  4  5  6  7  8  9  10  11  12  23  26  30  31 0
 6-311+G(2d,p)
 ****
 33  35  36  37  38 0
 6-311+G(2d,p)
 ****
 1  2  13  14  15  16  17  18  19  20  21  22  24  25 0
 3-21G
 ****
 27  28  29  32  34  39  40  41  42  43  44  45  46  47  48  49 0
 3-21G
 ****


