%nproc=1
%NoSave
%Mem=1900MB
#P OB98/GEN NMR

erre ene a

0 1
  C     -474.922     542.237     421.777
  O     -476.233     542.421     422.310
  P     -476.485     543.619     423.344
  C     -478.039     542.154     424.798
  O     -477.899     543.368     424.069
  C     -479.433     542.050     425.412
  O     -480.381     541.435     424.501
  C     -479.474     541.193     426.670
  O     -478.906     541.873     427.772
  C     -480.960     540.895     426.786
  O     -481.654     541.985     427.417
  C     -481.386     540.779     425.300
  N     -481.601     539.404     424.866
  C     -482.718     539.186     424.067
  O     -483.487     540.115     423.792
  N     -482.958     537.910     423.602
  C     -482.150     536.952     423.919
  N     -482.431     535.706     423.439
  C     -480.963     537.138     424.779
  C     -480.756     538.378     425.224
  O     -476.282     544.990     422.808
  O     -475.440     543.297     424.525
  H     -481.577     542.742     426.804
  H     -475.162     544.134     424.941
  H     -480.312     536.302     425.014
  H     -479.907     538.615     425.861
  H     -482.314     541.340     425.130
  H     -481.154     539.998     427.391
  H     -478.922     540.252     426.493
  H     -479.781     543.057     425.650
  H     -483.253     535.599     422.860
  H     -477.277     542.102     425.583
  H     -481.827     534.914     423.586
  H     -477.840     541.311     424.121
  P     -477.978     541.030     428.781
  C     -478.790     542.242     430.933
  O     -477.702     541.945     430.067
  O     -476.558     541.009     428.035
  O     -478.466     539.648     429.068
  H     -476.106     540.162     428.220
  H     -478.393     542.590     431.896
  H     -479.408     541.354     431.103
  H     -479.394     543.047     430.497
  H     -474.923     541.402     421.108
  H     -474.235     542.053     422.576
  H     -474.626     543.118     421.247

 3  4  5  6  7  8  9  10  11  12  13  23  27  28  29  30  32 0
 6-311+G(2d,p)
 ****
 34  35 0
 6-311+G(2d,p)
 ****
 1  2  14  15  16  17  18  19  20  21  22  24  25  26 0
 3-21G
 ****
 31  33  36  37  38  39  40  41  42  43  44  45  46 0
 3-21G
 ****


