%nproc=1
%NoSave
%Mem=1900MB
#P OB98/GEN NMR

erre ene a

0 1
  C      189.791     336.064     -76.149
  O      189.351     336.112     -77.491
  H      190.884     336.025     -76.139
  H      189.403     335.170     -75.654
  H      189.463     336.958     -75.614
  P      187.762     336.059     -77.724
  C      187.952     338.521     -78.564
  O      187.507     337.198     -78.828
  C      188.814     339.020     -79.718
  O      190.050     338.272     -79.792
  C      188.176     338.878     -81.099
  O      187.203     339.869     -81.372
  C      189.406     339.034     -81.972
  O      189.798     340.418     -82.010
  C      190.430     338.184     -81.193
  N      190.465     336.784     -81.628
  C      191.722     336.264     -81.967
  O      192.731     336.963     -81.898
  N      191.799     334.966     -82.413
  C      190.725     334.243     -82.494
  N      190.866     332.968     -82.944
  C      189.388     334.747     -82.137
  C      189.331     336.008     -81.716
  O      187.169     336.720     -76.394
  O      187.194     334.721     -78.059
  H      189.039     340.912     -82.373
  H      186.198     336.872     -76.497
  H      188.519     334.110     -82.232
  H      188.380     336.447     -81.434
  H      191.440     338.602     -81.285
  H      189.247     338.723     -83.004
  H      187.763     337.873     -81.245
  H      189.079     340.065     -79.511
  H      191.788     332.671     -83.238
  H      188.534     338.509     -77.637
  H      190.078     332.379     -83.184
  H      187.094     339.187     -78.440
  P      185.949     339.439     -82.280
  C      184.010     339.118     -80.570
  O      184.632     339.963     -81.531
  O      185.883     337.855     -82.081
  O      186.059     339.820     -83.724
  H      185.580     337.413     -82.899
  H      183.151     339.611     -80.165
  H      184.702     338.903     -79.783
  H      183.709     338.205     -81.040

 6  7  8  9  10  11  12  13  14  15  16  26  30  31  32  33  35 0
 6-311+G(2d,p)
 ****
 37  38 0
 6-311+G(2d,p)
 ****
 1  2  3  4  5  17  18  19  20  21  22  23  24  25 0
 3-21G
 ****
 27  28  29  34  36  39  40  41  42  43  44  45  46 0
 3-21G
 ****


