%nproc=1
%NoSave
%Mem=1900MB
#P OB98/GEN NMR

erre ene a

0 1
  C      -56.957     438.591    -676.478
  O      -55.615     438.938    -676.212
  H      -57.398     439.360    -677.117
  H      -57.531     438.531    -675.551
  H      -57.005     437.632    -677.007
  P      -54.754     438.002    -675.237
  C      -56.038     438.927    -673.201
  O      -54.762     438.703    -673.792
  C      -55.868     439.449    -671.760
  O      -55.202     438.412    -670.991
  C      -55.005     440.722    -671.692
  O      -55.641     441.788    -670.987
  C      -53.664     440.220    -671.158
  O      -52.901     441.184    -670.469
  C      -54.071     438.996    -670.318
  N      -53.002     438.016    -670.152
  C      -52.068     438.254    -669.143
  O      -52.086     439.212    -668.367
  N      -51.071     437.320    -669.034
  C      -50.918     436.206    -669.806
  O      -50.003     435.400    -669.655
  C      -51.918     436.024    -670.869
  C      -52.904     436.918    -670.995
  O      -53.400     437.615    -675.735
  O      -55.686     436.713    -675.019
  H      -52.791     441.952    -671.061
  H      -55.358     435.974    -675.568
  H      -50.389     437.473    -668.303
  H      -51.819     435.156    -671.510
  H      -53.658     436.817    -671.759
  H      -54.391     439.312    -669.321
  H      -53.058     439.873    -672.018
  H      -54.855     441.141    -672.698
  H      -56.859     439.601    -671.320
  H      -56.583     437.976    -673.197
  H      -56.600     439.656    -673.789
  P      -56.866     442.646    -671.545
  C      -55.453     443.843    -673.408
  O      -56.292     443.954    -672.251
  O      -58.004     442.831    -670.596
  O      -57.411     441.752    -672.784
  H      -58.382     441.892    -672.830
  H      -55.169     444.820    -673.737
  H      -55.987     443.345    -674.190
  H      -54.577     443.281    -673.161

 6  7  8  9  10  11  12  13  14  15  16  26  31  32  33  34  35 0
 6-311+G(2d,p)
 ****
 36  37 0
 6-311+G(2d,p)
 ****
 1  2  3  4  5  17  18  19  20  21  22  23  24  25 0
 3-21G
 ****
 27  28  29  30  38  39  40  41  42  43  44  45 0
 3-21G
 ****


