%nproc=1
%NoSave
%Mem=1900MB
#P OB98/GEN NMR

erre ene a

0 1
  C      173.675     277.714    -506.454
  O      174.608     276.669    -506.663
  H      173.254     278.000    -507.421
  H      174.165     278.583    -506.014
  H      172.860     277.372    -505.805
  P      175.401     276.093    -505.398
  C      177.562     277.479    -505.714
  O      176.960     276.188    -505.769
  C      179.074     277.363    -505.926
  O      179.693     276.704    -504.806
  C      179.474     276.559    -507.168
  O      179.393     277.369    -508.332
  C      180.905     276.196    -506.810
  O      181.764     277.341    -507.006
  C      180.782     275.891    -505.304
  N      182.547     271.692    -503.053
  C      183.171     272.899    -503.285
  N      184.460     272.992    -502.900
  N      182.592     273.917    -503.867
  C      181.334     273.658    -504.267
  C      180.605     272.499    -504.104
  C      181.239     271.403    -503.405
  O      180.704     270.328    -503.148
  N      179.377     272.577    -504.719
  C      179.342     273.799    -505.210
  N      180.508     274.500    -504.974
  O      174.975     274.742    -504.911
  O      175.226     277.221    -504.275
  H      181.683     277.610    -507.942
  H      174.449     277.045    -503.712
  H      183.042     270.937    -502.609
  H      178.502     274.239    -505.745
  H      181.689     276.173    -504.754
  H      181.299     275.388    -507.422
  H      185.002     272.199    -502.591
  H      178.888     275.643    -507.260
  H      184.958     273.851    -503.118
  H      179.486     278.386    -505.976
  H      177.349     277.903    -504.728
  H      177.134     278.127    -506.485
  P      178.373     277.026    -509.529
  C      179.903     275.738    -511.168
  O      179.277     276.968    -510.853
  O      177.186     277.925    -509.616
  O      178.015     275.482    -509.296
  H      177.273     275.342    -508.659
  H      180.469     275.846    -512.070
  H      179.157     274.983    -511.303
  H      180.556     275.455    -510.369

 6  7  8  9  10  11  12  13  14  15  26  29  33  34 0
 6-311+G(2d,p)
 ****
 36  38  39  40  41 0
 6-311+G(2d,p)
 ****
 1  2  3  4  5  16  17  18  19  20  21  22  23  24  25 0
 3-21G
 ****
 27  28  30  31  32  35  37  42  43  44  45  46  47 0
 3-21G
 ****
 48  49 0
 3-21G
 ****


