%nproc=1
%NoSave
%Mem=1900MB
#P OB98/GEN NMR

erre ene a

0 1
  C     -122.491    -492.942     192.081
  O     -121.807    -491.725     192.302
  H     -121.758    -493.746     191.988
  H     -123.072    -492.884     191.157
  H     -123.153    -493.164     192.923
  P     -122.715    -490.410     192.443
  C     -124.172    -489.018     190.808
  O     -123.187    -490.032     190.955
  C     -123.972    -488.270     189.494
  O     -123.724    -489.197     188.415
  C     -125.159    -487.416     189.070
  O     -125.146    -486.158     189.725
  C     -124.923    -487.298     187.571
  O     -123.942    -486.281     187.270
  C     -124.387    -488.693     187.223
  N     -125.745    -491.924     183.590
  C     -124.596    -491.173     183.730
  N     -123.697    -491.262     182.726
  N     -124.352    -490.407     184.756
  C     -125.356    -490.393     185.666
  C     -126.533    -491.103     185.644
  C     -126.777    -491.976     184.518
  O     -127.745    -492.715     184.360
  N     -127.292    -490.840     186.758
  C     -126.591    -489.945     187.428
  N     -125.417    -489.631     186.796
  O     -121.653    -489.258     192.794
  O     -123.798    -490.487     193.464
  H     -123.582    -486.443     186.382
  H     -122.087    -488.587     193.351
  H     -125.867    -492.514     182.784
  H     -126.888    -489.499     188.366
  H     -123.638    -488.661     186.422
  H     -125.834    -487.023     187.039
  H     -123.963    -491.555     181.797
  H     -126.103    -487.945     189.252
  H     -122.857    -490.697     182.814
  H     -123.072    -487.648     189.602
  H     -124.084    -488.313     191.643
  H     -125.165    -489.476     190.838
  P     -126.480    -485.264     189.650
  C     -127.705    -483.942     187.775
  O     -126.608    -484.774     188.130
  O     -126.073    -483.926     190.435
  O     -127.696    -485.906     190.225
  H     -126.872    -483.430     190.681
  H     -127.649    -483.703     186.734
  H     -127.670    -483.040     188.350
  H     -128.622    -484.456     187.974

 6  7  8  9  10  11  12  13  14  15  26  29  33  34 0
 6-311+G(2d,p)
 ****
 36  38  39  40  41 0
 6-311+G(2d,p)
 ****
 1  2  3  4  5  16  17  18  19  20  21  22  23  24  25 0
 3-21G
 ****
 27  28  30  31  32  35  37  42  43  44  45  46  47 0
 3-21G
 ****
 48  49 0
 3-21G
 ****


