%nproc=1
%NoSave
%Mem=1900MB
#P OB98/GEN NMR

erre ene a

0 1
  C     -487.390     147.326      16.702
  O     -486.172     147.443      16.001
  P     -486.049     148.606      14.899
  C     -484.864     147.461      12.877
  O     -486.084     147.901      13.458
  C     -484.903     147.702      11.362
  O     -486.070     147.078      10.781
  C     -484.991     149.173      10.984
  O     -483.734     149.816      11.075
  C     -485.529     149.090       9.559
  O     -484.459     148.860       8.620
  C     -486.462     147.863       9.641
  N     -487.876     148.232       9.694
  C     -488.421     148.724       8.508
  O     -487.765     148.861       7.473
  N     -489.739     149.082       8.563
  C     -490.539     149.058       9.667
  O     -491.696     149.444       9.669
  C     -489.897     148.559      10.902
  C     -488.612     148.183      10.860
  O     -484.536     149.109      15.039
  O     -487.028     149.722      15.068
  H     -483.825     149.597       8.743
  H     -484.496     150.079      14.879
  H     -490.160     149.413       7.707
  H     -490.498     148.523      11.797
  H     -488.123     147.826      11.757
  H     -486.309     147.213       8.763
  H     -486.032     150.014       9.247
  H     -485.742     149.677      11.614
  H     -484.008     147.246      10.914
  H     -484.727     146.398      13.076
  H     -484.031     148.011      13.326
  P     -483.742     151.406      11.308
  C     -483.085     151.840       8.812
  O     -484.016     152.038       9.855
  O     -482.186     151.673      11.596
  O     -484.663     151.833      12.404
  H     -481.617     151.061      11.102
  H     -482.622     150.848       8.864
  H     -482.309     152.610       8.870
  H     -483.605     151.930       7.854
  H     -487.325     146.515      17.397
  H     -488.184     147.140      16.009
  H     -487.585     148.235      17.232

 3  4  5  6  7  8  9  10  11  12  13  23  28  29  30  31  32 0
 6-311+G(2d,p)
 ****
 33  34 0
 6-311+G(2d,p)
 ****
 1  2  14  15  16  17  18  19  20  21  22  24  25  26 0
 3-21G
 ****
 27  35  36  37  38  39  40  41  42  43  44  45 0
 3-21G
 ****


