%nproc=1
%NoSave
%Mem=1900MB
#P OB98/GEN NMR

erre ene a

0 1
  C      -35.905     -59.088    -488.438
  O      -35.938     -58.056    -487.468
  P      -36.381     -58.359    -485.956
  C      -38.557     -58.600    -484.638
  O      -37.985     -58.356    -485.911
  C      -40.037     -58.194    -484.609
  O      -40.148     -56.745    -484.745
  C      -40.890     -58.827    -485.729
  O      -42.189     -59.045    -485.177
  C      -40.955     -57.708    -486.766
  O      -42.050     -57.846    -487.666
  C      -41.041     -56.489    -485.853
  N      -42.697     -51.993    -487.646
  C      -43.352     -53.035    -487.088
  N      -42.836     -54.226    -486.660
  C      -41.521     -54.255    -486.850
  C      -40.717     -53.290    -487.441
  C      -41.355     -52.089    -487.841
  N      -40.697     -51.012    -488.388
  N      -39.398     -53.723    -487.518
  C      -39.422     -54.920    -486.986
  N      -40.645     -55.269    -486.508
  O      -35.718     -57.498    -484.918
  O      -36.000     -59.906    -485.747
  H      -41.935     -57.202    -488.397
  H      -35.213     -59.993    -485.190
  H      -44.426     -52.903    -486.967
  H      -38.562     -55.601    -486.922
  H      -42.050     -56.352    -485.430
  H      -40.032     -57.694    -487.355
  H      -40.477     -59.749    -486.133
  H      -40.445     -58.459    -483.625
  H      -38.006     -57.986    -483.906
  H      -41.228     -50.178    -488.515
  H      -39.686     -50.955    -488.289
  H      -38.441     -59.657    -484.363
  P      -42.956     -60.444    -485.451
  C      -44.429     -61.185    -487.405
  O      -43.257     -60.486    -487.012
  O      -44.120     -60.715    -484.562
  O      -41.798     -61.539    -485.273
  H      -42.199     -62.416    -485.146
  H      -44.226     -62.253    -487.413
  H      -44.744     -60.859    -488.396
  H      -45.266     -60.997    -486.698
  H      -35.586     -58.685    -489.377
  H      -36.883     -59.509    -488.544
  H      -35.221     -59.849    -488.126

 3  4  5  6  7  8  9  10  11  12  22  25  29  30  31  32 0
 6-311+G(2d,p)
 ****
 33  36  37 0
 6-311+G(2d,p)
 ****
 1  2  13  14  15  16  17  18  19  20  21  23  24  26 0
 3-21G
 ****
 27  28  34  35  38  39  40  41  42  43  44  45  46  47  48 0
 3-21G
 ****


