%nproc=1
%NoSave
%Mem=1900MB
#P OB98/GEN NMR

erre ene a

0 1
  C      165.544     115.406     106.487
  O      166.140     116.585     107.034
  P      166.954     116.398     108.405
  C      166.082     118.054     110.204
  O      167.005     117.820     109.148
  C      165.665     119.526     110.243
  O      164.641     119.830     109.278
  C      165.111     119.963     111.592
  O      166.172     120.208     112.497
  C      164.336     121.219     111.218
  O      165.205     122.370     111.158
  C      163.799     120.882     109.818
  N      158.995     122.439     109.393
  C      160.154     123.178     109.540
  N      160.017     124.521     109.549
  N      161.341     122.643     109.663
  C      161.329     121.288     109.632
  C      160.249     120.451     109.464
  C      158.938     121.054     109.332
  O      157.886     120.447     109.176
  N      160.635     119.135     109.424
  C      161.928     119.176     109.696
  N      162.409     120.463     109.767
  O      168.458     116.165     107.913
  O      166.465     115.260     109.236
  H      164.719     123.116     110.762
  H      168.722     115.239     108.078
  H      158.105     122.903     109.308
  H      162.561     118.311     109.824
  H      163.881     121.739     109.140
  H      163.563     121.455     111.954
  H      159.133     124.997     109.457
  H      164.424     119.199     111.985
  H      160.856     125.079     109.648
  H      166.554     120.123     109.993
  H      166.530     117.774     111.161
  H      165.211     117.405     110.063
  P      166.202     119.372     113.866
  C      165.745     121.080     115.766
  O      166.706     120.357     115.019
  O      167.433     118.368     113.648
  O      164.946     118.624     114.161
  H      167.183     117.475     113.948
  H      166.140     121.257     116.770
  H      164.801     120.532     115.846
  H      165.565     122.043     115.280
  H      165.032     115.653     105.580
  H      164.848     114.999     107.190
  H      166.306     114.684     106.281

 3  4  5  6  7  8  9  10  11  12  23  26  30  31 0
 6-311+G(2d,p)
 ****
 33  35  36  37  38 0
 6-311+G(2d,p)
 ****
 1  2  13  14  15  16  17  18  19  20  21  22  24  25 0
 3-21G
 ****
 27  28  29  32  34  39  40  41  42  43  44  45  46  47  48  49 0
 3-21G
 ****


