%nproc=1
%NoSave
%Mem=1900MB
#P OB98/GEN NMR

erre ene a

0 1
  C      -50.813    -160.826    -133.849
  O      -51.502    -159.615    -133.616
  H      -49.739    -160.641    -133.918
  H      -51.000    -161.505    -133.013
  H      -51.170    -161.293    -134.770
  P      -51.326    -158.459    -134.715
  C      -51.899    -158.208    -137.230
  O      -51.736    -159.096    -136.134
  C      -52.346    -158.984    -138.468
  O      -51.362    -160.013    -138.741
  C      -53.720    -159.663    -138.335
  O      -54.601    -159.203    -139.367
  C      -53.438    -161.139    -138.567
  O      -54.435    -161.786    -139.357
  C      -52.084    -161.136    -139.264
  N      -52.586    -166.191    -138.876
  C      -53.352    -165.262    -139.489
  N      -53.107    -163.945    -139.648
  C      -51.918    -163.617    -139.116
  C      -51.017    -164.456    -138.482
  C      -51.401    -165.801    -138.353
  N      -50.646    -166.737    -137.680
  N      -49.905    -163.753    -138.059
  C      -50.150    -162.501    -138.394
  N      -51.363    -162.369    -139.018
  O      -49.736    -158.295    -134.824
  O      -51.992    -157.166    -134.387
  H      -54.237    -162.741    -139.331
  H      -49.500    -157.349    -134.779
  H      -54.291    -165.622    -139.901
  H      -49.513    -161.655    -138.172
  H      -52.177    -161.003    -140.349
  H      -53.385    -161.648    -137.597
  H      -54.181    -159.498    -137.354
  H      -52.343    -158.300    -139.324
  H      -50.945    -157.715    -137.448
  H      -51.051    -167.648    -137.534
  H      -49.816    -166.430    -137.193
  H      -52.635    -157.443    -136.965
  P      -55.307    -157.777    -139.128
  C      -54.827    -155.342    -139.914
  O      -54.315    -156.650    -139.697
  O      -55.207    -157.589    -137.541
  O      -56.715    -157.710    -139.613
  H      -55.931    -157.016    -137.227
  H      -54.049    -154.712    -140.292
  H      -55.191    -154.944    -138.990
  H      -55.627    -155.385    -140.624

 6  7  8  9  10  11  12  13  14  15  25  28  32  33  34  35 0
 6-311+G(2d,p)
 ****
 36  39  40 0
 6-311+G(2d,p)
 ****
 1  2  3  4  5  16  17  18  19  20  21  22  23  24 0
 3-21G
 ****
 26  27  29  30  31  37  38  41  42  43  44  45  46  47  48 0
 3-21G
 ****


