%nproc=1
%NoSave
%Mem=1900MB
#P OB98/GEN NMR

erre ene a

0 1
  C      122.623     251.253    -132.415
  O      123.587     251.149    -131.387
  H      122.267     250.253    -132.690
  H      121.779     251.842    -132.050
  H      123.049     251.747    -133.293
  P      124.988     250.469    -131.773
  C      124.282     248.034    -131.191
  O      124.636     248.960    -132.209
  C      123.790     246.725    -131.812
  O      123.575     245.753    -130.752
  C      122.476     246.865    -132.587
  O      122.531     246.038    -133.750
  C      121.436     246.327    -131.620
  O      120.271     245.846    -132.287
  C      122.230     245.245    -130.893
  N      118.578     242.642    -128.445
  C      118.959     242.663    -129.744
  N      119.948     243.386    -130.309
  C      120.609     244.101    -129.381
  C      120.335     244.189    -128.023
  C      119.255     243.415    -127.560
  N      118.836     243.411    -126.249
  N      121.210     245.059    -127.405
  C      121.994     245.499    -128.375
  N      121.665     244.951    -129.585
  O      125.690     250.289    -130.338
  O      125.844     251.233    -132.719
  H      120.558     245.258    -133.018
  H      126.077     251.143    -130.058
  H      118.392     242.026    -130.411
  H      122.803     246.207    -128.250
  H      122.267     244.304    -131.448
  H      121.127     247.120    -130.923
  H      122.265     247.897    -132.880
  H      124.585     246.320    -132.453
  H      123.485     248.467    -130.573
  H      118.014     242.879    -126.010
  H      119.292     244.028    -125.583
  H      125.157     247.838    -130.559
  P      122.575     246.795    -135.168
  C      120.045     247.320    -135.315
  O      121.362     247.839    -135.232
  O      122.152     245.651    -136.211
  O      123.924     247.359    -135.500
  H      122.793     245.618    -136.947
  H      119.345     248.128    -135.350
  H      119.846     246.713    -134.457
  H      119.950     246.727    -136.201

 6  7  8  9  10  11  12  13  14  15  25  28  32  33  34  35 0
 6-311+G(2d,p)
 ****
 36  39  40 0
 6-311+G(2d,p)
 ****
 1  2  3  4  5  16  17  18  19  20  21  22  23  24 0
 3-21G
 ****
 26  27  29  30  31  37  38  41  42  43  44  45  46  47 0
 3-21G
 ****
 48 0
 3-21G
 ****


