%nproc=1
%NoSave
%Mem=1900MB
#P OB98/GEN NMR

erre ene a

0 1
  C     -780.643      27.477     132.922
  O     -781.579      26.508     133.350
  H     -780.091      27.078     132.065
  H     -779.935      27.700     133.727
  H     -781.158      28.393     132.617
  P     -782.512      26.908     134.593
  C     -784.540      25.341     134.155
  O     -783.384      25.608     134.943
  C     -784.526      23.876     133.708
  O     -783.533      23.689     132.677
  C     -784.154      22.904     134.818
  O     -785.232      22.639     135.697
  C     -783.726      21.687     134.004
  O     -784.857      20.902     133.606
  C     -783.064      22.325     132.780
  N     -778.951      19.305     132.616
  C     -780.265      19.051     132.413
  N     -781.299      19.916     132.461
  C     -780.863      21.161     132.724
  C     -779.560      21.573     132.956
  C     -778.571      20.577     132.891
  N     -777.235      20.819     133.125
  N     -779.517      22.922     133.235
  C     -780.767      23.328     133.173
  N     -781.615      22.297     132.862
  O     -783.571      27.916     133.943
  O     -781.794      27.523     135.747
  H     -785.319      20.650     134.432
  H     -783.310      28.834     134.137
  H     -780.514      18.024     132.191
  H     -781.108      24.343     133.347
  H     -783.345      21.818     131.843
  H     -783.058      21.045     134.580
  H     -783.287      23.272     135.374
  H     -785.509      23.633     133.285
  H     -784.535      25.989     133.272
  H     -785.432      25.556     134.752
  H     -776.592      20.049     133.127
  H     -776.959      21.746     133.438
  P     -784.931      21.765     137.003
  C     -786.787      22.850     138.489
  O     -786.294      21.681     137.843
  O     -783.999      22.716     137.895
  O     -784.285      20.447     136.736
  H     -783.342      22.176     138.374
  H     -787.698      22.618     139.000
  H     -786.972      23.610     137.759
  H     -786.062      23.201     139.194

 6  7  8  9  10  11  12  13  14  15  25  28  32  33  34  35 0
 6-311+G(2d,p)
 ****
 36  37  40 0
 6-311+G(2d,p)
 ****
 1  2  3  4  5  16  17  18  19  20  21  22  23  24 0
 3-21G
 ****
 26  27  29  30  31  38  39 41  42  43  44  45  46  47  48 0
 3-21G
 ****


