%nproc=1
%NoSave
%Mem=1900MB
#P OB98/GEN NMR

erre ene a

0 1
  C     -898.780    -179.421     230.301
  O     -897.970    -179.992     229.260
  P     -898.220    -179.507     227.755
  C     -895.720    -180.045     227.355
  O     -897.060    -180.119     226.843
  C     -894.690    -180.304     226.259
  O     -894.730    -181.685     225.808
  C     -894.920    -179.469     225.018
  O     -894.540    -178.108     225.238
  C     -894.090    -180.222     223.989
  O     -892.710    -179.857     224.070
  C     -894.280    -181.693     224.426
  N     -895.210    -182.428     223.585
  C     -894.700    -183.576     222.988
  O     -893.520    -183.905     223.141
  N     -895.540    -184.338     222.197
  C     -896.770    -183.972     222.033
  N     -897.550    -184.768     221.234
  C     -897.340    -182.759     222.643
  C     -896.510    -182.039     223.392
  O     -898.480    -178.043     227.570
  O     -899.500    -180.386     227.310
  H     -892.400    -180.136     224.960
  H     -900.000    -179.878     226.656
  H     -898.390    -182.508     222.468
  H     -896.860    -181.137     223.868
  H     -893.320    -182.215     224.413
  H     -894.420    -180.007     222.956
  H     -895.990    -179.503     224.730
  H     -893.710    -180.104     226.665
  H     -897.130    -185.593     220.825
  H     -895.610    -180.801     228.158
  H     -898.530    -184.597     221.100
  H     -895.580    -179.074     227.819
  P     -895.390    -176.963     224.509
  C     -894.840    -174.911     226.008
  O     -894.640    -175.566     224.763
  O     -896.690    -176.856     225.438
  O     -895.750    -177.255     223.090
  H     -897.470    -176.645     224.882
  H     -894.050    -174.178     226.141
  H     -894.810    -175.614     226.841
  H     -895.810    -174.402     225.999
  H     -898.497    -179.841     231.244
  H     -899.811    -179.636     230.109
  H     -898.635    -178.361     230.325

 3  4  5  6  7  8  9  10  11  12  13  23  27  28  29  30  32 0
 6-311+G(2d,p)
 ****
 34  35 0
 6-311+G(2d,p)
 ****
 1  2  14  15  16  17  18  19  20  21  22  24  25  26 0
 3-21G
 ****
 31  33  36  37  38  39  40  41  42  43  44  45  46 0
 3-21G
 ****


