%nproc=1
%NoSave
%Mem=1900MB
#P OB98/GEN NMR

erre ene a

0 1
  C       26.931      17.874    -583.805
  O       26.960      17.332    -585.109
  H       27.248      17.105    -583.096
  H       25.915      18.187    -583.552
  H       27.613      18.728    -583.730
  P       26.694      18.345    -586.320
  C       26.388      16.354    -588.008
  O       25.856      17.545    -587.435
  C       25.471      15.862    -589.129
  O       24.134      15.625    -588.643
  C       25.276      16.870    -590.251
  O       26.424      17.027    -591.054
  C       24.095      16.243    -590.979
  O       24.518      15.158    -591.814
  C       23.248      15.721    -589.790
  N       22.095      16.567    -589.512
  C       20.904      16.210    -590.159
  O       20.875      15.229    -590.906
  N       19.793      16.990    -589.971
  C       19.850      18.019    -589.183
  N       18.716      18.760    -589.048
  C       21.073      18.418    -588.463
  C       22.147      17.657    -588.672
  O       28.141      18.474    -586.993
  O       26.067      19.648    -585.937
  H       25.199      14.672    -591.309
  H       28.541      17.620    -587.223
  H       21.072      19.280    -587.811
  H       23.089      17.879    -588.183
  H       22.881      14.704    -589.994
  H       23.581      16.962    -591.622
  H       24.946      17.834    -589.842
  H       25.873      14.915    -589.507
  H       17.900      18.468    -589.578
  H       26.518      15.579    -587.250
  H       18.650      19.597    -588.493
  H       27.377      16.598    -588.410
  P       26.759      18.439    -591.735
  C       28.138      16.959    -593.331
  O       27.303      18.105    -593.211
  O       27.639      19.339    -590.937
  O       25.307      19.052    -592.041
  H       24.753      18.509    -592.631
  H       28.435      16.840    -594.352
  H       27.600      16.091    -593.012
  H       29.007      17.085    -592.719

 6  7  8  9  10  11  12  13  14  15  16  26  30  31  32  33  35 0
 6-311+G(2d,p)
 ****
 37  38 0
 6-311+G(2d,p)
 ****
 1  2  3  4  5  17  18  19  20  21  22  23  24  25 0
 3-21G
 ****
 27  28  29  34  36  39  40  41  42  43  44  45  46 0
 3-21G
 ****


