%nproc=1
%NoSave
%Mem=1900MB
#P OB98/GEN NMR

erre ene a

0 1
  C      127.333     -67.033    -375.724
  O      127.743     -66.548    -374.436
  P      127.316     -67.408    -373.152
  C      125.233     -67.671    -371.627
  O      125.820     -66.998    -372.732
  C      123.885     -67.034    -371.234
  O      124.089     -65.699    -370.691
  C      122.910     -66.888    -372.408
  O      121.570     -66.983    -371.903
  C      123.157     -65.465    -372.873
  O      122.072     -64.968    -373.660
  C      123.356     -64.775    -371.521
  N      122.837     -59.797    -372.220
  C      121.884     -60.798    -372.186
  N      120.597     -60.408    -372.325
  N      122.165     -62.069    -372.023
  C      123.494     -62.299    -371.865
  C      124.533     -61.403    -371.891
  C      124.207     -60.004    -372.092
  O      125.015     -59.084    -372.149
  N      125.745     -62.029    -371.715
  C      125.433     -63.311    -371.597
  N      124.076     -63.518    -371.639
  O      128.220     -66.777    -371.980
  O      127.569     -68.871    -373.288
  H      121.259     -65.049    -373.109
  H      128.920     -67.400    -371.727
  H      122.566     -58.843    -372.357
  H      126.140     -64.112    -371.474
  H      122.406     -64.548    -371.027
  H      124.071     -65.419    -373.474
  H      120.310     -59.445    -372.391
  H      123.050     -67.625    -373.209
  H      119.878     -61.117    -372.260
  H      123.430     -67.640    -370.448
  H      125.905     -67.652    -370.768
  H      125.108     -68.729    -371.879
  P      120.566     -67.943    -372.690
  C      119.211     -67.746    -374.905
  O      120.109     -67.132    -373.992
  O      119.248     -67.945    -371.773
  O      121.077     -69.324    -372.938
  H      118.738     -68.757    -371.917
  H      118.210     -67.327    -374.764
  H      119.169     -68.837    -374.764
  H      119.540     -67.539    -375.918
  H      127.684     -66.367    -376.484
  H      126.265     -67.087    -375.762
  H      127.745     -68.007    -375.886

 3  4  5  6  7  8  9  10  11  12  23  26  30  31 0
 6-311+G(2d,p)
 ****
 33  35  36  37  38 0
 6-311+G(2d,p)
 ****
 1  2  13  14  15  16  17  18  19  20  21  22  24  25 0
 3-21G
 ****
 27  28  29  32  34  39  40  41  42  43  44  45  46  47  48  49 0
 3-21G
 ****


