%nproc=1
%NoSave
%Mem=1900MB
#P OB98/GEN NMR

erre ene a

0 1
  C        3.214      75.404     395.108
  O        4.096      75.996     394.175
  H        3.319      75.921     396.065
  H        3.461      74.347     395.249
  H        2.182      75.504     394.762
  P        4.140      75.343     392.711
  C        6.416      74.265     393.266
  O        5.065      74.037     392.882
  C        7.310      73.129     392.771
  O        8.680      73.418     393.159
  C        6.944      71.760     393.356
  O        7.162      70.754     392.365
  C        7.952      71.583     394.479
  O        8.147      70.211     394.819
  C        9.175      72.281     393.890
  N       13.934      71.728     395.621
  C       13.335      71.330     394.478
  N       12.062      71.539     394.084
  C       11.404      72.297     394.989
  C       11.879      72.774     396.196
  C       13.214      72.455     396.512
  N       13.824      72.825     397.688
  N       10.890      73.469     396.862
  C        9.836      73.417     396.066
  N       10.095      72.698     394.930
  O        4.535      76.262     391.605
  O        2.675      74.709     392.587
  H        8.557      69.757     394.055
  H        2.428      74.217     393.394
  H       13.957      70.757     393.794
  H        8.870      73.863     396.275
  H        9.738      71.638     393.197
  H        7.602      72.103     395.378
  H        5.915      71.710     393.716
  H        7.290      73.114     391.675
  H        6.488      74.340     394.357
  H       14.783      72.553     397.831
  H       13.306      73.370     398.362
  H        6.734      75.222     392.830
  P        5.896      70.106     391.619
  C        5.111      68.664     393.610
  O        4.791      69.728     392.725
  O        6.205      69.023     390.642
  O        5.230      71.370     390.888
  H        4.947      71.106     389.990
  H        4.301      68.512     394.292
  H        5.997      68.910     394.157
  H        5.276      67.769     393.047

 6  7  8  9  10  11  12  13  14  15  25  28  32  33  34  35 0
 6-311+G(2d,p)
 ****
 36  39  40 0
 6-311+G(2d,p)
 ****
 1  2  3  4  5  16  17  18  19  20  21  22  23  24 0
 3-21G
 ****
 26  27  29  30  31  37  38  41  42  43  44  45  46  47 0
 3-21G
 ****
 48 0
 3-21G
 ****


