%nproc=1
%NoSave
%Mem=1900MB
#P OB98/GEN NMR

erre ene a

0 1
  C      315.901    -563.728     564.624
  O      317.222    -564.055     565.021
  P      317.390    -565.207     566.132
  C      319.345    -563.668     566.944
  O      318.838    -564.982     566.791
  C      320.750    -563.721     567.530
  O      320.743    -564.381     568.810
  C      321.758    -564.480     566.664
  O      322.241    -563.647     565.626
  C      322.812    -564.868     567.694
  O      323.708    -563.763     567.958
  C      321.957    -565.185     568.932
  N      323.786    -569.789     569.924
  C      324.453    -568.597     569.690
  N      325.795    -568.637     569.782
  N      323.852    -567.474     569.406
  C      322.503    -567.586     569.335
  C      321.729    -568.714     569.524
  C      322.405    -569.939     569.896
  O      321.857    -570.996     570.205
  N      320.393    -568.441     569.345
  C      320.362    -567.155     569.073
  N      321.613    -566.580     569.083
  O      317.554    -566.529     565.257
  O      316.272    -565.297     567.120
  H      324.407    -564.059     568.568
  H      316.709    -567.012     565.197
  H      324.300    -570.623     570.163
  H      319.462    -566.585     568.896
  H      322.448    -564.872     569.867
  H      323.434    -565.697     567.354
  H      326.331    -569.475     569.976
  H      321.298    -565.388     566.256
  H      326.306    -567.775     569.615
  H      321.093    -562.693     567.695
  H      318.692    -563.111     567.629
  H      319.346    -563.165     565.971
  P      321.651    -563.877     564.153
  C      324.049    -564.284     563.229
  O      322.832    -563.568     563.116
  O      320.638    -562.653     563.966
  O      320.962    -565.187     563.962
  H      319.864    -562.942     563.450
  H      324.494    -564.372     562.237
  H      323.891    -565.294     563.634
  H      324.730    -563.740     563.877
  H      315.932    -562.954     563.886
  H      315.347    -563.389     565.474
  H      315.428    -564.595     564.212

 3  4  5  6  7  8  9  10  11  12  23  26  30  31 0
 6-311+G(2d,p)
 ****
 33  35  36  37  38 0
 6-311+G(2d,p)
 ****
 1  2  13  14  15  16  17  18  19  20  21  22  24  25 0
 3-21G
 ****
 27  28  29  32  34  39  40  41  42  43  44  45  46  47  48  49 0
 3-21G
 ****


