%nproc=1
%NoSave
%Mem=1900MB
#P OB98/GEN NMR

erre ene a

0 1
  C       96.069      31.580    -109.475
  O       94.729      32.083    -109.381
  P       93.483      31.444    -110.167
  C       93.718      32.579    -112.484
  O       93.858      31.380    -111.728
  C       94.109      32.352    -113.945
  O       95.524      32.067    -114.048
  C       93.440      31.161    -114.615
  O       92.078      31.402    -114.915
  C       94.331      30.974    -115.845
  O       93.934      31.843    -116.916
  C       95.716      31.393    -115.315
  N       96.634      30.273    -115.176
  C       97.538      30.073    -116.224
  O       97.483      30.770    -117.235
  N       98.473      29.075    -116.098
  C       98.438      28.282    -115.074
  N       99.398      27.321    -114.996
  C       97.415      28.375    -114.017
  C       96.555      29.385    -114.129
  O       92.181      32.118    -109.888
  O       93.446      29.908    -109.716
  H       92.535      29.566    -109.797
  H       94.534      31.659    -117.667
  H       97.395      27.665    -113.200
  H       95.778      29.536    -113.384
  H       96.160      32.147    -115.977
  H       94.292      29.949    -116.230
  H       93.532      30.281    -113.967
  H       93.894      33.276    -114.503
  H      100.093      27.292    -115.734
  H       94.384      33.340    -112.052
  H       99.476      26.667    -114.231
  H       92.687      32.940    -112.403
  P       90.993      30.533    -114.108
  C       90.683      28.741    -115.961
  O       91.089      29.024    -114.635
  O       89.593      31.054    -114.687
  O       91.058      30.685    -112.627
  H       88.940      31.106    -113.965
  H       91.231      27.865    -116.316
  H       90.880      29.578    -116.636
  H       89.615      28.515    -115.968
  H       96.716      32.172    -108.862
  H       96.398      31.629    -110.492
  H       96.093      30.564    -109.141

 3  4  5  6  7  8  9  10  11  12  13  24  27  28  29  30  32 0
 6-311+G(2d,p)
 ****
 34  35 0
 6-311+G(2d,p)
 ****
 1  2  14  15  16  17  18  19  20  21  22  23  25  26 0
 3-21G
 ****
 31  33  36  37  38  39  40  41  42  43  44  45  46 0
 3-21G
 ****


