%nproc=1
%NoSave
%Mem=1900MB
#P OB98/GEN NMR

erre ene a

0 1
  C      226.010     -62.877     159.047
  O      224.845     -62.106     158.842
  H      225.727     -63.822     159.516
  H      226.696     -62.348     159.713
  H      226.506     -63.094     158.097
  P      224.953     -60.747     157.999
  C      223.141     -59.132     157.118
  O      223.561     -59.977     158.179
  C      221.640     -59.301     156.849
  O      221.418     -60.631     156.285
  C      220.756     -59.190     158.109
  O      219.488     -58.668     157.683
  C      220.646     -60.649     158.511
  O      219.663     -60.870     159.490
  C      220.435     -61.277     157.126
  N      220.585     -62.725     157.067
  C      219.499     -63.467     156.606
  O      218.426     -62.987     156.241
  N      219.678     -64.826     156.575
  C      220.813     -65.497     156.936
  O      220.925     -66.714     156.856
  C      221.919     -64.661     157.421
  C      221.759     -63.336     157.460
  O      225.417     -60.894     156.589
  O      225.965     -59.851     158.860
  H      226.851     -59.871     158.449
  H      219.876     -60.332     160.283
  H      218.906     -65.380     156.240
  H      222.829     -65.158     157.727
  H      222.563     -62.692     157.803
  H      219.451     -61.001     156.738
  H      221.588     -60.986     158.953
  H      221.180     -58.536     158.875
  H      221.335     -58.575     156.084
  H      223.711     -59.404     156.221
  H      223.362     -58.094     157.377
  P      219.106     -57.111     157.749
  C      218.156     -55.338     156.118
  O      218.355     -56.722     156.383
  O      220.258     -56.215     158.075
  O      217.958     -57.001     158.861
  H      217.968     -56.109     159.253
  H      217.648     -55.223     155.183
  H      219.104     -54.844     156.072
  H      217.566     -54.906     156.900

 6  7  8  9  10  11  12  13  14  15  16  27  31  32  33  34  35 0
 6-311+G(2d,p)
 ****
 36  37 0
 6-311+G(2d,p)
 ****
 1  2  3  4  5  17  18  19  20  21  22  23  24  25 0
 3-21G
 ****
 26  28  29  30  38  39  40  41  42  43  44  45 0
 3-21G
 ****


