%nproc=1
%NoSave
%Mem=1900MB
#P OB98/GEN NMR

erre ene a

0 1
  C     -444.313     160.081     -84.717
  O     -444.416     159.567     -86.051
  P     -445.846     159.677     -86.772
  C     -444.711     159.575     -89.116
  O     -445.717     159.068     -88.249
  C     -444.513     158.635     -90.314
  O     -443.869     157.411     -89.913
  C     -445.821     158.207     -90.954
  O     -446.336     159.239     -91.775
  C     -445.407     156.954     -91.724
  O     -444.975     157.271     -93.058
  C     -444.229     156.409     -90.884
  N     -444.535     155.134     -90.242
  C     -443.887     154.015     -90.768
  O     -443.123     154.128     -91.730
  N     -444.143     152.788     -90.204
  C     -444.988     152.687     -89.223
  N     -445.201     151.444     -88.709
  C     -445.714     153.848     -88.658
  C     -445.447     155.031     -89.213
  O     -445.999     161.253     -87.037
  O     -446.979     159.139     -85.962
  H     -445.791     157.387     -93.585
  H     -446.939     161.511     -86.983
  H     -446.414     153.714     -87.844
  H     -445.932     155.935     -88.862
  H     -443.342     156.260     -91.520
  H     -446.235     156.246     -91.816
  H     -446.552     157.937     -90.178
  H     -443.879     159.143     -91.056
  H     -444.689     150.678     -89.118
  H     -443.767     159.684     -88.578
  H     -445.839     151.255     -87.952
  H     -445.000     160.578     -89.449
  P     -447.921     159.493     -91.756
  C     -447.535     162.025     -91.486
  O     -448.107     161.004     -92.279
  O     -448.210     159.652     -90.183
  O     -448.792     158.458     -92.379
  H     -449.165     159.718     -90.022
  H     -447.551     162.960     -92.044
  H     -446.501     161.781     -91.223
  H     -448.127     162.156     -90.570
  H     -443.314     159.945     -84.359
  H     -444.995     159.558     -84.080
  H     -444.553     161.124     -84.717

 3  4  5  6  7  8  9  10  11  12  13  21  23  27  28  29  30  32 0
 6-311+G(2d,p)
 ****
 34  35 0
 6-311+G(2d,p)
 ****
 1  2  14  15  16  17  18  19  20  22  24  25  26 0
 3-21G
 ****
 31  33  36  37  38  39  40  41  42  43  44  45  46 0
 3-21G
 ****


