%nproc=1
%NoSave
%Mem=1900MB
#P OB98/GEN NMR

erre ene a

0 1
  C      -34.006     -78.781    -225.463
  O      -34.652     -78.710    -226.732
  P      -35.767     -79.804    -227.094
  C      -34.037     -81.554    -227.867
  O      -35.101     -81.260    -226.966
  C      -33.349     -82.866    -227.484
  O      -32.728     -82.784    -226.186
  C      -34.311     -84.041    -227.397
  O      -34.700     -84.479    -228.689
  C      -33.485     -85.038    -226.592
  O      -32.570     -85.749    -227.440
  C      -32.707     -84.116    -225.628
  N      -33.232     -84.125    -224.271
  C      -32.810     -85.182    -223.457
  O      -32.063     -86.054    -223.909
  N      -33.252     -85.230    -222.159
  C      -34.055     -84.311    -221.711
  N      -34.454     -84.403    -220.418
  C      -34.536     -83.188    -222.544
  C      -34.100     -83.163    -223.798
  O      -36.531     -79.560    -228.352
  O      -36.739     -79.753    -225.814
  H      -32.057     -86.333    -226.850
  H      -37.645     -79.986    -226.095
  H      -35.199     -82.443    -222.126
  H      -34.405     -82.378    -224.482
  H      -31.654     -84.414    -225.581
  H      -34.122     -85.786    -226.101
  H      -35.198     -83.752    -226.821
  H      -32.575     -83.074    -228.236
  H      -34.123     -85.190    -219.874
  H      -33.313     -80.732    -227.850
  H      -35.041     -83.713    -219.966
  H      -34.442     -81.601    -228.885
  P      -36.059     -83.884    -229.290
  C      -37.776     -84.847    -227.597
  O      -37.092     -83.705    -228.087
  O      -36.659     -85.132    -230.106
  O      -35.888     -82.693    -230.176
  H      -37.131     -84.805    -230.897
  H      -38.180     -84.621    -226.611
  H      -37.106     -85.705    -227.518
  H      -38.606     -85.088    -228.269
  H      -33.295     -77.986    -225.380
  H      -33.502     -79.721    -225.371
  H      -34.736     -78.690    -224.686

 3  4  5  6  7  8  9  10  11  12  13  23  27  28  29  30  32 0
 6-311+G(2d,p)
 ****
 34  35 0
 6-311+G(2d,p)
 ****
 1  2  14  15  16  17  18  19  20  21  22  24  25  26 0
 3-21G
 ****
 31  33  36  37  38  39  40  41  42  43  44  45  46 0
 3-21G
 ****


