%nproc=1
%NoSave
%Mem=1900MB
#P OB98/GEN NMR

erre ene a

0 1
  C      147.349     233.099     156.758
  O      148.115     231.927     156.984
  P      149.082     231.432     155.804
  C      150.702     233.439     156.104
  O      149.832     232.731     155.232
  C      152.068     233.658     155.452
  O      152.764     234.721     156.163
  C      152.985     232.424     155.460
  O      153.745     232.468     154.247
  C      153.863     232.689     156.670
  O      155.050     231.914     156.705
  C      154.056     234.197     156.541
  N      158.182     235.460     159.282
  C      158.050     234.911     158.053
  N      156.918     234.612     157.385
  C      155.837     234.946     158.109
  C      155.814     235.493     159.380
  C      157.060     235.755     159.976
  N      157.190     236.307     161.235
  N      154.517     235.673     159.814
  C      153.768     235.240     158.822
  N      154.521     234.809     157.764
  O      148.059     231.055     154.633
  O      149.974     230.282     156.160
  H      155.642     232.180     155.975
  H      148.349     230.256     154.155
  H      158.980     234.683     157.538
  H      152.688     235.202     158.824
  H      154.766     234.454     155.745
  H      153.297     232.449     157.579
  H      152.438     231.479     155.506
  H      151.909     234.005     154.423
  H      150.849     232.858     157.020
  H      158.110     236.268     161.646
  H      156.361     236.328     161.815
  H      150.241     234.393     156.381
  P      154.753     231.262     153.920
  C      153.132     230.749     151.994
  O      153.853     230.222     153.091
  O      154.842     230.543     155.349
  O      156.066     231.651     153.336
  H      153.958     230.367     155.718
  H      152.647     229.923     151.466
  H      153.810     231.261     151.305
  H      152.364     231.441     152.350
  H      146.755     233.309     157.623
  H      146.709     232.950     155.913
  H      148.005     233.923     156.567

 3  4  5  6  7  8  9  10  11  12  22  25  29  30  31  32 0
 6-311+G(2d,p)
 ****
 33  36  37 0
 6-311+G(2d,p)
 ****
 1  2  13  14  15  16  17  18  19  20  21  23  24  26 0
 3-21G
 ****
 27  28  34  35  38  39  40  41  42  43  44  45  46  47  48 0
 3-21G
 ****


