%nproc=1
%NoSave
%Mem=1900MB
#P OB98/GEN NMR

erre ene a

0 1
  C      121.831     114.354     -10.017
  O      121.588     113.929      -8.691
  H      120.996     114.976     -10.348
  H      121.896     113.478     -10.670
  H      122.754     114.935     -10.082
  P      122.835     113.348      -7.866
  C      124.900     114.545      -6.838
  O      123.504     114.596      -7.103
  C      125.298     115.660      -5.871
  O      124.875     116.939      -6.436
  C      124.672     115.534      -4.471
  O      125.622     115.978      -3.494
  C      123.537     116.544      -4.525
  O      123.147     116.993      -3.226
  C      124.161     117.632      -5.392
  N      122.450     122.346      -5.115
  C      123.606     121.776      -4.606
  N      124.404     122.568      -3.855
  N      123.949     120.533      -4.813
  C      123.073     119.858      -5.600
  C      121.899     120.305      -6.158
  C      121.518     121.679      -5.903
  O      120.505     122.236      -6.309
  N      121.260     119.290      -6.836
  C      122.040     118.232      -6.673
  N      123.149     118.529      -5.927
  O      123.890     113.000      -9.022
  O      122.538     112.162      -7.010
  H      122.761     116.236      -2.749
  H      123.808     112.061      -9.272
  H      122.225     123.305      -4.908
  H      121.838     117.241      -7.050
  H      124.881     118.251      -4.837
  H      122.658     116.102      -5.014
  H      124.221     123.543      -3.675
  H      124.327     114.521      -4.226
  H      125.270     122.177      -3.511
  H      126.392     115.685      -5.803
  H      125.451     114.671      -7.777
  H      125.147     113.563      -6.415
  P      126.160     114.913      -2.424
  C      127.495     112.701      -2.760
  O      127.355     114.078      -3.086
  O      124.967     113.844      -2.354
  O      126.450     115.498      -1.085
  H      124.890     113.492      -1.447
  H      128.336     112.294      -3.283
  H      126.608     112.175      -3.046
  H      127.646     112.598      -1.706

 6  7  8  9  10  11  12  13  14  15  26  29  33  34 0
 6-311+G(2d,p)
 ****
 36  38  39  40  41 0
 6-311+G(2d,p)
 ****
 1  2  3  4  5  16  17  18  19  20  21  22  23  24  25 0
 3-21G
 ****
 27  28  30  31  32  35  37  42  43  44  45  46  47 0
 3-21G
 ****
 48  49 0
 3-21G
 ****


