%nproc=1
%NoSave
%Mem=1900MB
#P OB98/GEN NMR

erre ene a

0 1
  C     -138.153    -352.936    -123.592
  O     -137.025    -353.115    -124.452
  P     -137.032    -352.263    -125.815
  C     -137.600    -354.171    -127.480
  O     -138.046    -352.985    -126.830
  C     -137.434    -353.945    -128.986
  O     -136.668    -355.036    -129.584
  C     -138.767    -353.855    -129.750
  O     -138.571    -352.903    -130.806
  C     -138.911    -355.261    -130.304
  O     -139.870    -355.356    -131.349
  C     -137.466    -355.543    -130.687
  N     -136.620    -359.050    -134.296
  C     -136.876    -357.723    -134.362
  N     -137.097    -356.856    -133.358
  C     -137.017    -357.487    -132.171
  C     -136.761    -358.828    -131.937
  C     -136.551    -359.633    -133.073
  N     -136.307    -360.986    -133.012
  N     -136.782    -359.105    -130.577
  C     -137.122    -357.954    -130.015
  N     -137.187    -356.941    -130.926
  O     -135.586    -352.545    -126.441
  O     -137.290    -350.807    -125.607
  H     -139.745    -356.194    -131.833
  H     -134.982    -351.806    -126.253
  H     -136.918    -357.309    -135.370
  H     -137.326    -357.810    -128.967
  H     -137.161    -354.992    -131.592
  H     -139.237    -355.935    -129.498
  H     -139.607    -353.532    -129.125
  H     -136.854    -353.022    -129.133
  H     -138.319    -354.979    -127.312
  H     -136.176    -361.480    -133.882
  H     -136.263    -361.461    -132.124
  H     -136.656    -354.500    -127.019
  P     -139.091    -351.400    -130.604
  C     -141.398    -351.879    -131.627
  O     -140.688    -351.548    -130.449
  O     -138.971    -350.842    -132.102
  O     -138.374    -350.583    -129.580
  H     -139.393    -351.447    -132.737
  H     -142.457    -352.029    -131.371
  H     -141.006    -352.802    -132.058
  H     -141.326    -351.067    -132.357
  H     -138.039    -353.549    -122.722
  H     -139.046    -353.216    -124.111
  H     -138.218    -351.909    -123.299

 3  4  5  6  7  8  9  10  11  12  22  25  29  30  31  32 0
 6-311+G(2d,p)
 ****
 33  36  37 0
 6-311+G(2d,p)
 ****
 1  2  13  14  15  16  17  18  19  20  21  23  24  26 0
 3-21G
 ****
 27  28  34  35  38  39  40  41  42  43  44  45  46  47  48 0
 3-21G
 ****


