%nproc=1
%NoSave
%Mem=1900MB
#P OB98/GEN NMR

erre ene a

0 1
  C       83.788      15.914     -73.001
  O       82.625      15.398     -73.617
  H       83.932      16.961     -73.283
  H       83.667      15.856     -71.917
  H       84.665      15.326     -73.290
  P       82.617      15.368     -75.222
  C       83.072      17.118     -77.083
  O       83.133      16.811     -75.698
  C       83.287      18.613     -77.298
  O       84.644      18.974     -76.970
  C       83.071      19.088     -78.732
  O       81.694      19.256     -79.031
  C       83.802      20.422     -78.702
  O       82.969      21.417     -78.077
  C       85.009      20.106     -77.804
  N       89.662      21.716     -79.196
  C       88.728      22.252     -78.379
  N       87.520      21.754     -78.041
  C       87.320      20.563     -78.628
  C       88.184      19.878     -79.466
  C       89.407      20.507     -79.756
  N       90.327      19.979     -80.648
  N       87.621      18.690     -79.886
  C       86.430      18.667     -79.325
  N       86.205      19.772     -78.551
  O       81.052      15.387     -75.569
  O       83.307      14.197     -75.839
  H       82.810      21.116     -77.163
  H       80.750      14.476     -75.736
  H       88.983      23.212     -77.941
  H       85.701      17.880     -79.453
  H       85.253      20.936     -77.133
  H       84.060      20.794     -79.697
  H       83.565      18.426     -79.453
  H       82.625      19.152     -76.608
  H       82.091      16.834     -77.476
  H       90.889      20.685     -81.116
  H       89.967      19.227     -81.224
  H       83.846      16.545     -77.603
  P       81.242      19.120     -80.564
  C       81.760      20.388     -82.758
  O       82.097      20.198     -81.390
  O       79.763      19.734     -80.553
  O       81.248      17.734     -81.109
  H       79.131      19.079     -80.911
  H       82.404      21.129     -83.184
  H       80.743      20.713     -82.833
  H       81.879      19.465     -83.286

 6  7  8  9  10  11  12  13  14  15  25  28  32  33  34  35 0
 6-311+G(2d,p)
 ****
 36  39  40 0
 6-311+G(2d,p)
 ****
 1  2  3  4  5  16  17  18  19  20  21  22  23  24 0
 3-21G
 ****
 26  27  29  30  31  37  38  41  42  43  44  45  46  47  48 0
 3-21G
 ****


