%nproc=1
%NoSave
%Mem=1900MB
#P OB98/GEN NMR

erre ene a

0 1
  C       32.706     120.595      -3.207
  O       31.484     121.243      -2.917
  H       32.569     119.974      -4.098
  H       33.008     119.950      -2.377
  H       33.489     121.330      -3.412
  P       31.398     122.154      -1.604
  C       30.549     124.519      -2.226
  O       30.199     123.191      -1.851
  C       29.298     125.330      -2.557
  O       28.753     124.914      -3.826
  C       28.167     125.172      -1.547
  O       28.447     125.897      -0.368
  C       26.991     125.678      -2.364
  O       26.975     127.113      -2.410
  C       27.317     125.092      -3.761
  N       26.628     123.837      -4.041
  C       25.367     123.947      -4.641
  O       24.893     125.055      -4.887
  N       24.674     122.795      -4.924
  C       25.205     121.639      -4.674
  N       24.470     120.538      -4.984
  C       26.546     121.479      -4.076
  C       27.188     122.605      -3.777
  O       32.678     122.788      -1.152
  O       30.801     121.172      -0.490
  H       27.898     127.390      -2.578
  H       31.521     120.758       0.024
  H       26.954     120.494      -3.895
  H       28.179     122.577      -3.335
  H       27.051     125.807      -4.549
  H       26.031     125.361      -1.953
  H       28.001     124.110      -1.326
  H       29.594     126.382      -2.653
  H       23.563     120.698      -5.412
  H       31.193     124.445      -3.108
  H       24.841     119.600      -4.987
  H       31.116     125.009      -1.426
  P       28.141     125.289       1.084
  C       29.790     126.892       2.236
  O       28.437     126.476       2.125
  O       28.825     124.000       1.391
  O       26.545     125.189       1.123
  H       26.235     124.405       0.602
  H       29.862     127.682       2.954
  H       30.135     127.241       1.285
  H       30.392     126.066       2.552

 6  7  8  9  10  11  12  13  14  15  16  26  30  31  32  33  35 0
 6-311+G(2d,p)
 ****
 37  38 0
 6-311+G(2d,p)
 ****
 1  2  3  4  5  17  18  19  20  21  22  23  24  25 0
 3-21G
 ****
 27  28  29  34  36  39  40  41  42  43  44  45  46 0
 3-21G
 ****


