%nproc=1
%NoSave
%Mem=1900MB
#P OB98/GEN NMR

erre ene a

0 1
  C      -92.351     392.939    -285.698
  O      -93.212     393.938    -286.259
  P      -93.659     395.163    -285.326
  C      -93.388     397.753    -285.333
  O      -93.004     396.507    -285.899
  C      -92.645     398.910    -286.008
  O      -91.216     398.708    -286.002
  C      -93.016     399.101    -287.473
  O      -94.220     399.839    -287.609
  C      -91.833     399.912    -287.972
  O      -92.004     401.300    -287.600
  C      -90.664     399.297    -287.198
  N      -86.406     398.239    -289.842
  C      -86.846     399.373    -289.255
  N      -87.994     399.586    -288.583
  C      -88.728     398.457    -288.537
  C      -88.413     397.223    -289.089
  C      -87.187     397.135    -289.770
  N      -86.744     395.973    -290.362
  N      -89.411     396.306    -288.847
  C      -90.309     396.972    -288.142
  N      -89.947     398.274    -287.940
  O      -92.837     394.903    -283.977
  O      -95.125     395.224    -285.072
  H      -92.794     401.627    -288.074
  H      -93.363     395.190    -283.209
  H      -86.176     400.233    -289.334
  H      -91.233     396.551    -287.758
  H      -89.927     400.051    -286.885
  H      -91.733     399.886    -289.060
  H      -93.060     398.134    -288.000
  H      -92.867     399.828    -285.448
  H      -93.188     397.753    -284.260
  H      -85.841     395.983    -290.812
  H      -87.313     395.142    -290.290
  H      -94.475     397.872    -285.437
  P      -95.603     399.029    -287.469
  C      -96.874     397.967    -285.461
  O      -95.728     398.671    -285.906
  O      -95.265     397.628    -288.165
  O      -96.777     399.702    -288.084
  H      -96.079     397.247    -288.560
  H      -96.667     397.546    -284.478
  H      -97.129     397.152    -286.149
  H      -97.722     398.656    -285.381
  H      -92.142     392.193    -286.436
  H      -92.832     392.485    -284.857
  H      -91.436     393.394    -285.382

 3  4  5  6  7  8  9  10  11  12  22  25  29  30  31  32 0
 6-311+G(2d,p)
 ****
 33  36  37 0
 6-311+G(2d,p)
 ****
 1  2  13  14  15  16  17  18  19  20  21  23  24  26 0
 3-21G
 ****
 27  28  34  35  38  39  40  41  42  43  44  45  46  47  48 0
 3-21G
 ****


