%nproc=1
%NoSave
%Mem=1900MB
#P OB98/GEN NMR

erre ene a

0 1
  C     -459.847      70.573    -456.742
  O     -459.313      70.949    -457.995
  H     -460.523      71.360    -456.398
  H     -459.049      70.452    -456.004
  H     -460.413      69.641    -456.832
  P     -458.281      69.954    -458.710
  C     -455.817      70.668    -458.987
  O     -456.845      70.284    -458.081
  C     -455.837      72.177    -459.191
  O     -455.712      72.858    -457.928
  C     -454.707      72.700    -460.079
  O     -455.027      72.518    -461.448
  C     -454.679      74.159    -459.660
  O     -455.774      74.864    -460.273
  C     -454.902      74.049    -458.138
  N     -451.324      76.552    -455.565
  C     -452.392      77.034    -456.294
  N     -452.495      78.378    -456.387
  N     -453.266      76.269    -456.898
  C     -452.996      74.950    -456.777
  C     -451.960      74.353    -456.094
  C     -451.031      75.208    -455.385
  O     -450.081      74.822    -454.709
  N     -451.972      72.992    -456.251
  C     -453.036      72.763    -456.996
  N     -453.683      73.923    -457.355
  O     -458.298      69.947    -460.209
  O     -458.634      68.522    -458.097
  H     -455.728      75.782    -459.952
  H     -459.279      68.046    -458.653
  H     -450.674      77.192    -455.137
  H     -453.383      71.783    -457.304
  H     -455.459      74.901    -457.737
  H     -453.762      74.670    -459.945
  H     -451.710      78.987    -456.193
  H     -453.745      72.245    -459.818
  H     -453.240      78.750    -456.960
  H     -456.816      72.448    -459.606
  H     -455.998      70.150    -459.933
  H     -454.839      70.362    -458.602
  P     -453.889      72.574    -462.581
  C     -453.626      74.664    -464.080
  O     -453.562      74.131    -462.763
  O     -454.225      71.854    -463.843
  O     -452.574      72.026    -461.855
  H     -452.474      71.045    -461.910
  H     -453.386      75.707    -464.055
  H     -454.614      74.534    -464.470
  H     -452.926      74.152    -464.706

 6  7  8  9  10  11  12  13  14  15  26  29  33  34 0
 6-311+G(2d,p)
 ****
 36  38  39  40  41 0
 6-311+G(2d,p)
 ****
 1  2  3  4  5  16  17  18  19  20  21  22  23  24  25 0
 3-21G
 ****
 27  28  30  31  32  35  37  42  43  44  45  46  47 0
 3-21G
 ****
 48  49 0
 3-21G
 ****


