%nproc=1
%NoSave
%Mem=1900MB
#P OB98/GEN NMR

erre ene a

0 1
  C     -339.184     559.144    -464.791
  O     -338.887     557.757    -464.748
  P     -339.056     556.896    -463.399
  C     -340.945     555.272    -464.082
  O     -339.554     555.448    -463.873
  C     -341.399     553.915    -463.507
  O     -340.882     552.862    -464.348
  C     -340.922     553.649    -462.075
  O     -341.960     552.910    -461.408
  C     -339.699     552.786    -462.277
  O     -339.370     552.012    -461.142
  C     -340.125     551.959    -463.506
  N     -338.990     551.394    -464.228
  C     -338.814     550.011    -464.144
  O     -339.571     549.302    -463.475
  N     -337.773     549.436    -464.841
  C     -336.940     550.199    -465.489
  N     -335.951     549.592    -466.209
  C     -337.037     551.675    -465.504
  C     -338.082     552.187    -464.882
  O     -339.895     557.541    -462.352
  O     -337.555     556.595    -462.935
  H     -338.706     551.335    -461.413
  H     -337.158     557.325    -462.399
  H     -336.291     552.260    -466.035
  H     -338.253     553.254    -464.864
  H     -340.817     551.156    -463.196
  H     -338.830     553.421    -462.515
  H     -340.723     554.569    -461.518
  H     -342.490     553.878    -463.559
  H     -336.016     548.580    -466.305
  H     -341.139     555.288    -465.156
  H     -335.489     550.075    -466.975
  H     -341.502     556.103    -463.617
  P     -342.382     553.363    -459.924
  C     -344.256     551.550    -459.916
  O     -343.150     552.130    -459.237
  O     -343.596     554.374    -460.227
  O     -341.338     554.049    -459.103
  H     -343.672     555.005    -459.487
  H     -344.643     550.723    -459.317
  H     -343.935     551.147    -460.887
  H     -345.041     552.289    -460.061
  H     -339.003     559.517    -465.777
  H     -338.561     559.664    -464.093
  H     -340.211     559.297    -464.534

 3  4  5  6  7  8  9  10  11  12  13  23  27  28  29  30  32 0
 6-311+G(2d,p)
 ****
 34  35 0
 6-311+G(2d,p)
 ****
 1  2  14  15  16  17  18  19  20  21  22  24  25  26 0
 3-21G
 ****
 31  33  36  37  38  39  40  41  42  43  44  45  46 0
 3-21G
 ****


