%nproc=1
%NoSave
%Mem=1900MB
#P OB98/GEN NMR

erre ene a

0 1
  C      114.621    -187.261    -129.643
  O      115.047    -186.015    -130.154
  H      115.502    -187.879    -129.454
  H      113.981    -187.776    -130.365
  H      114.084    -187.122    -128.701
  P      113.930    -184.962    -130.625
  C      113.406    -184.000    -132.974
  O      113.913    -185.097    -132.227
  C      114.182    -183.846    -134.279
  O      115.568    -183.534    -134.025
  C      114.221    -185.097    -135.154
  O      112.995    -185.357    -135.819
  C      115.334    -184.712    -136.114
  O      114.834    -183.767    -137.079
  C      116.342    -184.038    -135.151
  N      117.386    -184.948    -134.689
  C      118.652    -184.800    -135.268
  O      118.851    -183.938    -136.122
  N      119.657    -185.658    -134.893
  C      119.415    -186.595    -134.031
  N      120.433    -187.449    -133.730
  C      118.103    -186.777    -133.381
  C      117.143    -185.935    -133.755
  O      114.072    -183.569    -130.102
  O      112.541    -185.652    -130.230
  H      114.502    -183.000    -136.581
  H      111.817    -185.034    -130.491
  H      117.952    -187.581    -132.675
  H      116.146    -186.015    -133.336
  H      116.815    -183.170    -135.627
  H      115.737    -185.562    -136.671
  H      114.543    -185.967    -134.576
  H      113.755    -182.989    -134.818
  H      121.306    -187.320    -134.226
  H      113.491    -183.101    -132.357
  H      120.257    -188.348    -133.297
  H      112.351    -184.166    -133.217
  P      112.571    -186.890    -136.038
  C      112.806    -188.554    -138.029
  O      113.268    -187.369    -137.403
  O      111.024    -186.780    -136.422
  O      112.812    -187.803    -134.877
  H      110.457    -186.887    -135.633
  H      113.371    -188.730    -138.920
  H      111.771    -188.445    -138.279
  H      112.927    -189.381    -137.361

 6  7  8  9  10  11  12  13  14  15  16  26  30  31  32  33  35 0
 6-311+G(2d,p)
 ****
 37  38 0
 6-311+G(2d,p)
 ****
 1  2  3  4  5  17  18  19  20  21  22  23  24  25 0
 3-21G
 ****
 27  28  29  34  36  39  40  41  42  43  44  45  46 0
 3-21G
 ****


