%nproc=1
%NoSave
%Mem=1900MB
#P OB98/GEN NMR

erre ene a

0 1
  C      -54.529     831.992    -427.239
  O      -55.530     832.541    -428.093
  P      -56.170     833.982    -427.749
  C      -54.418     835.498    -428.902
  O      -54.995     835.064    -427.677
  C      -54.764     836.974    -429.157
  O      -54.204     837.831    -428.116
  C      -54.165     837.515    -430.461
  O      -54.726     837.009    -431.651
  C      -54.202     839.006    -430.231
  O      -55.491     839.548    -430.553
  C      -53.926     839.109    -428.724
  N      -52.551     839.549    -428.435
  C      -52.272     840.894    -428.633
  O      -53.095     841.690    -429.062
  N      -50.993     841.284    -428.343
  C      -49.967     840.469    -427.916
  O      -48.831     840.872    -427.703
  C      -50.317     839.056    -427.758
  C      -51.560     838.654    -428.021
  O      -57.144     833.995    -426.616
  O      -56.908     834.370    -429.125
  H      -56.158     839.095    -430.006
  H      -57.775     834.774    -428.897
  H      -50.768     842.258    -428.470
  H      -49.536     838.370    -427.441
  H      -51.843     837.606    -427.907
  H      -54.596     839.838    -428.244
  H      -53.477     839.529    -430.874
  H      -53.106     837.210    -430.483
  H      -55.850     837.102    -429.134
  H      -54.786     834.879    -429.725
  H      -53.340     835.343    -428.863
  P      -54.077     835.797    -432.486
  C      -55.169     833.699    -431.418
  O      -54.019     834.506    -431.527
  O      -52.848     836.090    -433.292
  O      -55.268     835.412    -433.479
  H      -54.875     835.094    -434.330
  H      -54.960     832.884    -430.707
  H      -55.451     833.279    -432.378
  H      -56.004     834.285    -431.011
  H      -54.221     831.039    -427.617
  H      -54.927     831.873    -426.253
  H      -53.687     832.652    -427.206

 3  4  5  6  7  8  9  10  11  12  13  23  28  29  30  31  32 0
 6-311+G(2d,p)
 ****
 33  34 0
 6-311+G(2d,p)
 ****
 1  2  14  15  16  17  18  19  20  21  22  24  25  26  27 0
 3-21G
 ****
 35  36  37  38  39  40  41  42  43  44  45 0
 3-21G
 ****


