%nproc=1
%NoSave
%Mem=1900MB
#P OB98/GEN NMR

erre ene a

0 1
  C      207.141     833.835     359.165
  O      205.721     833.901     359.134
  H      207.440     833.204     360.002
  H      207.564     834.837     359.314
  H      207.523     833.402     358.233
  P      205.022     834.833     358.027
  C      204.344     834.520     355.559
  O      205.175     834.075     356.622
  C      204.362     833.521     354.405
  O      205.730     833.424     353.921
  C      203.912     832.109     354.841
  O      202.871     831.575     354.025
  C      205.225     831.322     354.913
  O      205.095     829.935     354.732
  C      206.103     832.025     353.872
  N      207.545     831.880     354.111
  C      208.138     830.688     353.700
  O      207.549     829.770     353.112
  N      209.479     830.586     353.951
  C      210.256     831.499     354.588
  O      211.451     831.337     354.794
  C      209.576     832.715     355.027
  C      208.260     832.854     354.781
  O      205.450     836.268     358.022
  O      203.461     834.698     358.351
  H      204.567     829.579     355.484
  H      203.146     835.488     358.824
  H      209.918     829.727     353.644
  H      210.162     833.467     355.543
  H      207.716     833.753     355.094
  H      205.897     831.661     352.874
  H      205.652     831.478     355.907
  H      203.457     832.142     355.843
  H      203.746     833.902     353.586
  H      204.732     835.496     355.226
  H      203.311     834.656     355.919
  P      201.309     831.678     354.358
  C      199.552     833.603     354.142
  O      200.737     832.998     353.664
  O      200.946     831.460     355.789
  O      200.661     830.477     353.502
  H      199.889     830.151     354.013
  H      199.331     834.469     353.554
  H      199.686     833.891     355.164
  H      198.742     832.907     354.070

 6  7  8  9  10  11  12  13  14  15  16  26  31  32  33  34  35 0
 6-311+G(2d,p)
 ****
 36  37 0
 6-311+G(2d,p)
 ****
 1  2  3  4  5  17  18  19  20  21  22  23  24  25 0
 3-21G
 ****
 27  28  29  30  38  39  40  41  42  43  44  45 0
 3-21G
 ****


