%nproc=1
%NoSave
%Mem=1900MB
#P OB98/GEN NMR

erre ene a

0 1
  C      -67.708    -204.542    -224.800
  O      -67.091    -205.751    -224.405
  H      -68.315    -204.169    -223.971
  H      -68.358    -204.714    -225.663
  H      -66.950    -203.793    -225.047
  P      -66.169    -206.474    -225.502
  C      -64.126    -207.242    -224.101
  O      -64.653    -206.283    -225.006
  C      -63.229    -206.562    -223.071
  O      -64.022    -205.825    -222.111
  C      -62.354    -207.519    -222.270
  O      -61.179    -207.859    -222.986
  C      -62.066    -206.687    -221.027
  O      -61.003    -205.740    -221.261
  C      -63.402    -205.966    -220.805
  N      -64.249    -207.156    -215.972
  C      -63.259    -206.379    -216.537
  N      -62.326    -205.888    -215.692
  N      -63.184    -206.113    -217.815
  C      -64.167    -206.698    -218.541
  C      -65.211    -207.477    -218.094
  C      -65.299    -207.735    -216.673
  O      -66.185    -208.363    -216.102
  N      -66.014    -207.872    -219.132
  C      -65.435    -207.367    -220.205
  N      -64.302    -206.661    -219.900
  O      -66.264    -205.500    -226.771
  O      -66.563    -207.869    -225.851
  H      -60.780    -205.296    -220.426
  H      -66.176    -206.029    -227.586
  H      -64.263    -207.310    -214.979
  H      -65.798    -207.485    -221.218
  H      -63.263    -204.957    -220.400
  H      -61.747    -207.311    -220.189
  H      -62.144    -206.318    -214.797
  H      -62.919    -208.415    -221.984
  H      -61.585    -205.335    -216.104
  H      -62.610    -205.831    -223.606
  H      -63.536    -207.974    -224.662
  H      -64.952    -207.757    -223.601
  P      -61.029    -209.376    -223.493
  C      -60.255    -208.857    -225.921
  O      -61.284    -209.349    -225.077
  O      -62.343    -210.090    -222.921
  O      -59.780    -210.060    -223.052
  H      -62.228    -211.058    -222.933
  H      -60.577    -208.904    -226.940
  H      -59.376    -209.454    -225.796
  H      -60.037    -207.842    -225.663

 6  7  8  9  10  11  12  13  14  15  26  29  33  34 0
 6-311+G(2d,p)
 ****
 36  38  39  40  41 0
 6-311+G(2d,p)
 ****
 1  2  3  4  5  16  17  18  19  20  21  22  23  24  25 0
 3-21G
 ****
 27  28  30  31  32  35  37  42  43  44  45  46  47 0
 3-21G
 ****
 48  49 0
 3-21G
 ****


