%nproc=1
%NoSave
%Mem=1900MB
#P OB98/GEN NMR

erre ene a

0 1
  C      -50.940     -19.516      65.835
  O      -51.588     -18.352      65.366
  H      -49.878     -19.292      65.977
  H      -51.029     -20.315      65.095
  H      -51.359     -19.844      66.791
  P      -53.190     -18.312      65.339
  C      -53.814     -17.960      67.820
  O      -53.632     -17.351      66.548
  C      -53.726     -16.904      68.924
  O      -52.365     -16.370      68.940
  C      -54.693     -15.718      68.719
  O      -55.128     -15.256      70.004
  C      -53.778     -14.692      68.082
  O      -54.289     -13.387      68.199
  C      -52.479     -14.936      68.846
  N      -51.335     -14.329      68.168
  C      -51.112     -12.978      68.403
  O      -51.823     -12.283      69.129
  N      -50.076     -12.412      67.710
  C      -49.330     -13.025      66.746
  O      -48.466     -12.452      66.101
  C      -49.647     -14.443      66.500
  C      -50.615     -15.025      67.215
  O      -53.877     -19.637      65.313
  O      -53.542     -17.419      64.056
  H      -53.654     -12.746      67.823
  H      -54.454     -17.598      63.757
  H      -49.895     -11.433      67.877
  H      -49.086     -14.959      65.732
  H      -50.887     -16.062      67.050
  H      -52.545     -14.540      69.866
  H      -53.657     -14.909      67.014
  H      -55.555     -15.971      68.101
  H      -53.889     -17.385      69.897
  H      -53.025     -18.710      67.958
  H      -54.788     -18.457      67.852
  P      -56.660     -14.876      70.295
  C      -57.713     -17.105      71.015
  O      -57.269     -15.823      71.446
  O      -57.512     -14.785      69.068
  O      -56.581     -13.438      71.004
  H      -57.247     -12.846      70.606
  H      -58.097     -17.650      71.852
  H      -56.892     -17.641      70.587
  H      -58.484     -16.988      70.282

 6  7  8  9  10  11  12  13  14  15  16  26  31  32  33  34  35 0
 6-311+G(2d,p)
 ****
 36  37 0
 6-311+G(2d,p)
 ****
 1  2  3  4  5  17  18  19  20  21  22  23  24  25 0
 3-21G
 ****
 27  28  29  30  38  39  40  41  42  43  44  45 0
 3-21G
 ****


