%nproc=1
%NoSave
%Mem=1900MB
#P OB98/GEN NMR

erre ene a

0 1
  C     -912.084    1901.397     928.688
  O     -912.126    1902.668     928.039
  P     -910.759    1903.194     927.391
  C     -911.045    1905.634     928.260
  O     -910.940    1904.784     927.146
  C     -911.537    1907.010     927.838
  O     -910.637    1907.579     926.885
  C     -912.917    1907.021     927.164
  O     -913.952    1906.841     928.097
  C     -912.866    1908.376     926.470
  O     -913.169    1909.419     927.430
  C     -911.382    1908.473     926.015
  N     -909.813    1909.964     921.374
  C     -909.907    1910.617     922.541
  N     -910.361    1910.181     923.754
  C     -910.722    1908.899     923.637
  C     -910.702    1908.079     922.509
  C     -910.245    1908.651     921.338
  N     -910.128    1907.992     920.143
  N     -911.190    1906.820     922.803
  C     -911.498    1906.871     924.084
  N     -911.217    1908.068     924.622
  O     -910.811    1902.581     925.908
  O     -909.495    1902.820     928.118
  H     -913.052    1910.274     926.961
  H     -909.907    1902.357     925.594
  H     -909.567    1911.654     922.537
  H     -911.900    1906.012     924.650
  H     -911.001    1909.483     926.136
  H     -913.625    1908.462     925.650
  H     -912.956    1906.217     926.389
  H     -911.578    1907.664     928.750
  H     -910.056    1905.727     928.744
  H     -909.914    1908.517     919.292
  H     -910.552    1907.081     920.083
  H     -911.729    1905.180     929.010
  P     -915.060    1905.733     927.782
  C     -917.210    1906.857     928.605
  O     -916.181    1905.957     928.906
  O     -914.315    1904.389     928.248
  O     -915.565    1905.740     926.366
  H     -913.949    1904.485     929.149
  H     -917.905    1906.893     929.451
  H     -917.738    1906.543     927.699
  H     -916.815    1907.864     928.468
  H     -913.053    1901.162     929.076
  H     -911.377    1901.430     929.491
  H     -911.790    1900.647     927.984

 3  4  5  6  7  8  9  10  11  12  22  25  29  30  31  32 0
 6-311+G(2d,p)
 ****
 33  36  37 0
 6-311+G(2d,p)
 ****
 1  2  13  14  15  16  17  18  19  20  21  23  24  26 0
 3-21G
 ****
 27  28  34  35  38  39  40  41  42  43  44  45  46  47  48 0
 3-21G
 ****


