%nproc=1
%NoSave
%Mem=1900MB
#P OB98/GEN NMR

erre ene a

0 1
  C     -215.565    -118.371    -166.184
  O     -214.590    -119.301    -165.760
  H     -215.401    -117.426    -165.661
  H     -216.568    -118.734    -165.947
  H     -215.476    -118.199    -167.260
  P     -214.714    -120.794    -166.333
  C     -213.941    -121.548    -163.969
  O     -214.816    -121.771    -165.067
  C     -214.568    -122.105    -162.695
  O     -215.687    -121.278    -162.297
  C     -215.138    -123.508    -162.846
  O     -214.139    -124.514    -162.795
  C     -216.079    -123.566    -161.656
  O     -215.392    -123.941    -160.454
  C     -216.603    -122.121    -161.571
  N     -217.969    -122.011    -162.076
  C     -218.934    -121.662    -161.134
  O     -218.677    -121.452    -159.950
  N     -220.220    -121.598    -161.595
  C     -220.632    -121.893    -162.860
  O     -221.811    -121.870    -163.193
  C     -219.572    -122.272    -163.808
  C     -218.308    -122.319    -163.379
  O     -213.254    -121.081    -166.920
  O     -215.779    -120.986    -167.361
  H     -213.280    -121.055    -167.894
  H     -214.631    -123.332    -160.378
  H     -220.933    -121.345    -160.929
  H     -219.865    -122.515    -164.821
  H     -217.510    -122.606    -164.055
  H     -216.595    -121.771    -160.531
  H     -216.867    -124.298    -161.818
  H     -215.725    -123.581    -163.770
  H     -213.817    -122.077    -161.895
  H     -213.776    -120.473    -163.842
  H     -212.980    -122.027    -164.176
  P     -214.578    -126.020    -163.133
  C     -212.160    -126.782    -162.427
  O     -213.563    -126.961    -162.325
  O     -214.107    -126.127    -164.658
  O     -216.027    -126.275    -162.898
  H     -213.364    -125.528    -164.850
  H     -211.663    -127.505    -161.815
  H     -211.901    -125.798    -162.097
  H     -211.857    -126.908    -163.446

 6  7  8  9  10  11  12  13  14  15  16  27  31  32  33  34  35 0
 6-311+G(2d,p)
 ****
 36  37 0
 6-311+G(2d,p)
 ****
 1  2  3  4  5  17  18  19  20  21  22  23  24  25 0
 3-21G
 ****
 26  28  29  30  38  39  40  41  42  43  44  45 0
 3-21G
 ****


