%nproc=1
%NoSave
%Mem=1900MB
#P OB98/GEN NMR

erre ene a

0 1
  C     -636.801     -18.065    -213.166
  O     -637.200     -16.713    -213.220
  P     -637.231     -15.821    -211.883
  C     -639.676     -15.015    -211.981
  O     -638.311     -14.657    -212.148
  C     -640.575     -13.842    -212.361
  O     -640.430     -12.747    -211.423
  C     -640.244     -13.221    -213.714
  O     -640.468     -14.010    -214.863
  C     -641.001     -11.903    -213.623
  O     -642.389     -12.077    -213.926
  C     -640.814     -11.540    -212.132
  N     -639.836     -10.469    -211.948
  C     -640.240      -9.202    -212.339
  O     -641.346      -8.960    -212.823
  N     -639.306      -8.205    -212.198
  C     -638.028      -8.364    -211.754
  O     -637.230      -7.436    -211.693
  C     -637.653      -9.728    -211.362
  C     -638.555     -10.709    -211.477
  O     -635.904     -15.339    -211.408
  O     -637.999     -16.755    -210.833
  H     -642.453     -12.307    -214.873
  H     -638.905     -17.008    -211.095
  H     -639.576      -7.279    -212.496
  H     -636.649      -9.885    -210.991
  H     -638.304     -11.730    -211.193
  H     -641.766     -11.209    -211.694
  H     -640.607     -11.162    -214.327
  H     -639.181     -12.974    -213.729
  H     -641.615     -14.175    -212.313
  H     -639.852     -15.272    -210.938
  H     -639.898     -15.901    -212.591
  P     -639.324     -14.903    -215.545
  C     -639.470     -13.453    -217.694
  O     -639.452     -14.755    -217.137
  O     -639.130     -16.281    -215.001
  O     -638.008     -14.034    -215.240
  H     -637.244     -14.636    -215.140
  H     -639.608     -13.542    -218.773
  H     -638.529     -12.943    -217.499
  H     -640.307     -12.878    -217.285
  H     -636.845     -18.489    -214.147
  H     -637.456     -18.605    -212.515
  H     -635.799     -18.127    -212.795

 3  4  5  6  7  8  9  10  11  12  13  23  28  29  30  31  32 0
 6-311+G(2d,p)
 ****
 33  34 0
 6-311+G(2d,p)
 ****
 1  2  14  15  16  17  18  19  20  21  22  24  25  26  27 0
 3-21G
 ****
 35  36  37  38  39  40  41  42  43  44  45 0
 3-21G
 ****


