%nproc=1
%NoSave
%Mem=1900MB
#P OB98/GEN NMR

erre ene a

0 1
  C     -144.305      37.004    -330.540
  O     -142.996      37.404    -330.887
  H     -144.344      36.821    -329.463
  H     -144.572      36.082    -331.064
  H     -145.018      37.795    -330.792
  P     -142.702      37.612    -332.454
  C     -140.595      38.498    -333.710
  O     -141.276      38.354    -332.472
  C     -139.164      38.967    -333.468
  O     -139.148      40.354    -333.052
  C     -138.427      38.212    -332.365
  O     -137.956      36.937    -332.777
  C     -137.285      39.177    -332.105
  O     -136.323      39.088    -333.173
  C     -138.031      40.528    -332.137
  N     -138.511      40.948    -330.815
  C     -137.742      41.909    -330.145
  O     -136.719      42.361    -330.653
  N     -138.132      42.307    -328.888
  C     -139.210      41.813    -328.357
  N     -139.544      42.246    -327.110
  C     -140.054      40.811    -329.032
  C     -139.652      40.427    -330.243
  O     -143.712      38.783    -332.868
  O     -142.787      36.391    -333.305
  H     -135.545      39.602    -332.890
  H     -143.511      39.093    -333.785
  H     -140.934      40.417    -328.542
  H     -140.225      39.695    -330.801
  H     -137.394      41.322    -332.544
  H     -136.749      38.974    -331.176
  H     -139.034      38.128    -331.458
  H     -138.627      38.908    -334.422
  H     -138.913      42.887    -326.651
  H     -141.135      39.233    -334.317
  H     -140.271      41.813    -326.556
  H     -140.575      37.541    -334.243
  P     -136.888      36.205    -331.827
  C     -136.294      33.724    -331.303
  O     -137.223      34.640    -331.872
  O     -137.347      36.641    -330.360
  O     -135.459      36.560    -332.096
  H     -136.577      36.738    -329.767
  H     -136.663      32.726    -331.414
  H     -136.168      33.944    -330.263
  H     -135.353      33.814    -331.804

 6  7  8  9  10  11  12  13  14  15  16  26  30  31  32  33  35 0
 6-311+G(2d,p)
 ****
 37  38 0
 6-311+G(2d,p)
 ****
 1  2  3  4  5  17  18  19  20  21  22  23  24  25 0
 3-21G
 ****
 27  28  29  34  36  39  40  41  42  43  44  45  46 0
 3-21G
 ****


