%nproc=1
%NoSave
%Mem=1900MB
#P OB98/GEN NMR

erre ene a

0 1
  C       24.789      28.763     -50.781
  O       26.132      28.565     -51.176
  P       27.344      28.936     -50.201
  C       27.778      31.095     -51.510
  O       27.538      30.526     -50.230
  C       27.739      32.621     -51.457
  O       26.457      33.052     -50.930
  C       28.839      33.247     -50.589
  O       29.268      34.445     -51.246
  C       28.111      33.578     -49.301
  O       28.768      34.590     -48.551
  C       26.729      33.958     -49.843
  N       25.694      33.892     -48.824
  C       25.151      35.105     -48.394
  O       25.639      36.170     -48.775
  N       24.083      35.076     -47.534
  C       23.719      33.948     -47.005
  N       22.614      33.954     -46.211
  C       24.436      32.680     -47.247
  C       25.374      32.715     -48.190
  O       28.597      28.155     -50.424
  O       26.762      28.672     -48.731
  H       27.369      28.077     -48.250
  H       28.798      35.411     -49.086
  H       24.176      31.794     -46.689
  H       25.937      31.829     -48.461
  H       26.747      34.972     -50.264
  H       28.044      32.681     -48.675
  H       29.697      32.584     -50.449
  H       27.811      33.000     -52.485
  H       22.126      34.833     -46.101
  H       27.000      30.743     -52.191
  H       22.080      33.107     -46.021
  H       28.742      30.747     -51.897
  P       30.846      34.712     -51.390
  C       30.984      36.091     -49.196
  O       31.436      34.968     -49.922
  O       30.865      36.190     -52.020
  O       31.604      33.775     -52.272
  H       31.698      36.313     -52.512
  H       31.538      36.144     -48.256
  H       29.920      35.993     -48.968
  H       31.160      37.011     -49.759
  H       24.136      28.454     -51.570
  H       24.628      29.800     -50.570
  H       24.586      28.185     -49.904

 3  4  5  6  7  8  9  10  11  12  13  24  27  28  29  30  32 0
 6-311+G(2d,p)
 ****
 34  35 0
 6-311+G(2d,p)
 ****
 1  2  14  15  16  17  18  19  20  21  22  23  25  26 0
 3-21G
 ****
 31  33  36  37  38  39  40  41  42  43  44  45  46 0
 3-21G
 ****


