%nproc=1
%NoSave
%Mem=1900MB
#P OB98/GEN NMR

erre ene a

0 1
  C      108.392     -22.147    -244.754
  O      108.336     -23.532    -244.480
  P      106.939     -24.278    -244.230
  C      107.329     -24.623    -241.705
  O      106.535     -23.986    -242.697
  C      106.465     -24.998    -240.492
  O      106.170     -23.785    -239.735
  C      105.120     -25.643    -240.887
  O      104.850     -26.894    -240.253
  C      104.119     -24.535    -240.606
  O      102.789     -24.990    -240.437
  C      104.768     -23.831    -239.406
  N      104.206     -22.504    -239.168
  C      102.934     -22.446    -238.597
  O      102.269     -23.429    -238.276
  N      102.398     -21.199    -238.452
  C      102.943     -20.032    -238.915
  O      102.366     -18.961    -238.840
  C      104.268     -20.158    -239.544
  C      104.838     -21.364    -239.621
  O      106.906     -25.713    -244.609
  O      105.892     -23.360    -245.027
  H      102.201     -24.209    -240.452
  H      105.843     -22.437    -244.726
  H      101.479     -21.137    -238.040
  H      104.717     -19.255    -239.930
  H      105.817     -21.486    -240.083
  H      104.665     -24.419    -238.495
  H      104.114     -23.854    -241.470
  H      105.099     -25.887    -241.962
  H      107.056     -25.673    -239.858
  H      108.116     -23.932    -241.383
  H      107.820     -25.507    -242.126
  P      103.958     -28.069    -240.868
  C      101.783     -27.549    -239.525
  O      102.420     -27.617    -240.787
  O      104.236     -29.429    -240.345
  O      104.267     -27.995    -242.439
  H      104.167     -28.876    -242.834
  H      100.713     -27.736    -239.662
  H      101.920     -26.549    -239.105
  H      102.185     -28.295    -238.834
  H      109.411     -21.851    -244.888
  H      107.968     -21.604    -243.935
  H      107.839     -21.937    -245.646

 3  4  5  6  7  8  9  10  11  12  13  23  28  29  30  31  32 0
 6-311+G(2d,p)
 ****
 33  34 0
 6-311+G(2d,p)
 ****
 1  2  14  15  16  17  18  19  20  21  22  24  25  26  27 0
 3-21G
 ****
 35  36  37  38  39  40  41  42  43  44  45 0
 3-21G
 ****


