%nproc=1
%NoSave
%Mem=1900MB
#P OB98/GEN NMR

erre ene a

0 1
  C     -103.037      34.905     -34.838
  O     -102.306      33.864     -34.229
  H     -103.897      34.471     -35.354
  H     -102.406      35.415     -35.572
  H     -103.397      35.627     -34.100
  P     -101.274      34.228     -33.061
  C      -99.216      33.742     -34.541
  O      -99.903      34.704     -33.750
  C      -97.818      34.220     -34.935
  O      -97.908      35.431     -35.719
  C      -96.957      34.567     -33.719
  O      -96.295      33.471     -33.114
  C      -95.956      35.551     -34.316
  O      -94.846      34.856     -34.910
  C      -96.780      36.263     -35.392
  N      -95.521      40.904     -33.665
  C      -94.709      39.808     -33.885
  N      -93.409      39.951     -33.546
  N      -95.143      38.677     -34.373
  C      -96.482      38.648     -34.574
  C      -97.390      39.666     -34.380
  C      -96.890      40.935     -33.891
  O      -97.569      41.934     -33.671
  N      -98.667      39.268     -34.697
  C      -98.541      37.994     -35.008
  N      -97.230      37.579     -34.975
  O     -100.875      32.799     -32.452
  O     -101.806      35.139     -31.996
  H      -94.186      35.516     -35.190
  H     -100.603      32.899     -31.522
  H      -95.128      41.760     -33.313
  H      -99.357      37.337     -35.291
  H      -96.204      36.397     -36.316
  H      -95.540      36.217     -33.555
  H      -93.054      40.761     -33.060
  H      -97.554      35.096     -32.969
  H      -92.846      39.104     -33.442
  H      -97.341      33.460     -35.567
  H      -99.821      33.580     -35.436
  H      -99.158      32.787     -34.011
  P      -95.955      33.504     -31.550
  C      -93.692      34.722     -31.966
  O      -94.945      34.727     -31.316
  O      -95.036      32.208     -31.360
  O      -97.141      33.482     -30.648
  H      -95.573      31.458     -31.043
  H      -93.149      35.605     -31.701
  H      -93.840      34.699     -33.025
  H      -93.137      33.858     -31.664

 6  7  8  9  10  11  12  13  14  15  26  29  33  34 0
 6-311+G(2d,p)
 ****
 36  38  39  40  41 0
 6-311+G(2d,p)
 ****
 1  2  3  4  5  16  17  18  19  20  21  22  23  24  25 0
 3-21G
 ****
 27  28  30  31  32  35  37  42  43  44  45  46  47 0
 3-21G
 ****
 48  49 0
 3-21G
 ****


