%nproc=1
%NoSave
%Mem=1900MB
#P OB98/GEN NMR

erre ene a

0 1
  C      147.290      25.157    -212.300
  O      146.493      26.062    -211.572
  H      148.047      24.742    -211.626
  H      147.801      25.664    -213.121
  H      146.681      24.336    -212.688
  P      145.420      26.963    -212.359
  C      145.421      29.378    -213.227
  O      146.227      28.295    -212.776
  C      146.275      30.565    -213.671
  O      146.619      31.376    -212.518
  C      147.584      30.165    -214.360
  O      147.753      30.942    -215.549
  C      148.654      30.520    -213.340
  O      149.923      30.746    -213.946
  C      148.010      31.727    -212.648
  N      148.614      32.033    -211.357
  C      149.590      33.035    -211.346
  O      149.925      33.586    -212.396
  N      150.188      33.365    -210.157
  C      149.882      32.713    -209.080
  N      150.520      33.080    -207.935
  C      148.894      31.616    -209.053
  C      148.299      31.336    -210.213
  O      144.147      27.207    -211.621
  O      145.216      26.214    -213.758
  H      150.540      31.080    -213.257
  H      144.363      26.506    -214.165
  H      148.680      31.095    -208.132
  H      147.555      30.553    -210.286
  H      148.079      32.621    -213.283
  H      148.762      29.696    -212.622
  H      147.625      29.112    -214.629
  H      145.663      31.204    -214.319
  H      151.189      33.838    -207.997
  H      144.747      29.673    -212.414
  H      150.366      32.640    -207.040
  H      144.825      29.029    -214.078
  P      148.031      30.117    -216.899
  C      149.987      28.751    -217.911
  O      149.547      29.590    -216.852
  O      148.056      31.258    -218.022
  O      147.001      29.076    -217.188
  H      147.205      31.279    -218.497
  H      151.009      28.479    -217.749
  H      149.900      29.274    -218.840
  H      149.383      27.868    -217.941

 6  7  8  9  10  11  12  13  14  15  16  26  30  31  32  33  35 0
 6-311+G(2d,p)
 ****
 37  38 0
 6-311+G(2d,p)
 ****
 1  2  3  4  5  17  18  19  20  21  22  23  24  25 0
 3-21G
 ****
 27  28  29  34  36  39  40  41  42  43  44  45  46 0
 3-21G
 ****


