%nproc=1
%NoSave
%Mem=1900MB
#P OB98/GEN NMR

erre ene a

0 1
  C     -125.161    -435.497    -231.741
  O     -124.385    -434.404    -232.197
  H     -126.134    -435.471    -232.243
  H     -125.321    -435.424    -230.659
  H     -124.662    -436.440    -231.984
  P     -122.937    -434.233    -231.524
  C     -123.566    -432.543    -229.659
  O     -123.195    -433.876    -229.979
  C     -122.420    -431.823    -228.949
  O     -122.666    -430.400    -228.893
  C     -122.182    -432.286    -227.514
  O     -121.377    -433.452    -227.484
  C     -121.479    -431.072    -226.923
  O     -120.081    -431.055    -227.289
  C     -122.231    -429.907    -227.593
  N     -123.652    -427.454    -223.410
  C     -122.399    -427.869    -223.820
  N     -121.370    -427.611    -222.983
  N     -122.170    -428.482    -224.950
  C     -123.293    -428.725    -225.668
  C     -124.592    -428.372    -225.369
  C     -124.825    -427.639    -224.139
  O     -125.899    -427.174    -223.762
  N     -125.459    -428.780    -226.354
  C     -124.692    -429.403    -227.230
  N     -123.369    -429.404    -226.854
  O     -122.403    -432.850    -232.138
  O     -121.976    -435.344    -231.782
  H     -120.007    -431.028    -228.259
  H     -121.445    -432.931    -232.304
  H     -123.766    -426.955    -222.547
  H     -125.034    -429.863    -228.145
  H     -121.572    -429.053    -227.778
  H     -121.514    -431.077    -225.831
  H     -121.519    -427.413    -222.005
  H     -123.135    -432.444    -226.990
  H     -120.468    -427.981    -223.251
  H     -121.515    -431.969    -229.554
  H     -124.442    -432.567    -229.008
  H     -123.818    -432.009    -230.584
  P     -121.645    -434.527    -226.320
  C     -119.340    -434.151    -225.183
  O     -120.753    -434.112    -225.049
  O     -120.916    -435.839    -226.880
  O     -123.087    -434.788    -226.040
  H     -121.586    -436.480    -227.195
  H     -118.886    -433.851    -224.262
  H     -119.037    -433.485    -225.964
  H     -119.032    -435.147    -225.425

 6  7  8  9  10  11  12  13  14  15  26  29  33  34 0
 6-311+G(2d,p)
 ****
 36  38  39  40  41 0
 6-311+G(2d,p)
 ****
 1  2  3  4  5  16  17  18  19  20  21  22  23  24  25 0
 3-21G
 ****
 27  28  30  31  32  35  37  42  43  44  45  46  47 0
 3-21G
 ****
 48  49 0
 3-21G
 ****


