%nproc=1
%NoSave
%Mem=1900MB
#P OB98/GEN NMR

erre ene a

0 1
  C      733.446    -234.395     -87.012
  O      733.780    -233.046     -87.257
  H      734.372    -234.970     -86.914
  H      732.876    -234.790     -87.854
  H      732.869    -234.503     -86.091
  P      732.671    -231.920     -87.007
  C      734.378    -230.213     -86.094
  O      733.395    -230.488     -87.083
  C      734.826    -228.747     -86.124
  O      735.674    -228.507     -87.268
  C      733.642    -227.788     -86.261
  O      732.987    -227.447     -85.051
  C      734.312    -226.559     -86.880
  O      734.883    -225.718     -85.863
  C      735.413    -227.179     -87.749
  N      735.134    -224.665     -92.191
  C      735.495    -224.187     -90.937
  N      735.758    -222.863     -90.859
  N      735.571    -224.942     -89.880
  C      735.184    -226.226     -90.092
  C      734.797    -226.805     -91.281
  C      734.771    -225.972     -92.463
  O      734.455    -226.341     -93.593
  N      734.484    -228.137     -91.111
  C      734.613    -228.335     -89.815
  N      735.062    -227.212     -89.156
  O      732.345    -232.057     -85.440
  O      731.425    -232.055     -87.828
  H      735.256    -224.929     -86.289
  H      731.441    -231.742     -85.260
  H      735.125    -224.046     -92.975
  H      734.417    -229.272     -89.308
  H      736.351    -226.620     -87.664
  H      733.597    -225.946     -87.435
  H      735.602    -222.226     -91.621
  H      732.913    -228.176     -86.980
  H      735.763    -222.435     -89.929
  H      735.419    -228.532     -85.228
  H      735.227    -230.866     -86.303
  H      734.004    -230.478     -85.104
  P      731.413    -227.156     -85.047
  C      731.427    -227.269     -82.449
  O      731.052    -226.553     -83.606
  O      730.776    -228.630     -85.018
  O      730.918    -226.363     -86.208
  H      730.542    -228.909     -85.921
  H      731.113    -226.731     -81.579
  H      732.490    -227.386     -82.431
  H      730.962    -228.233     -82.460

 6  7  8  9  10  11  12  13  14  15  26  29  33  34 0
 6-311+G(2d,p)
 ****
 36  38  39  40  41 0
 6-311+G(2d,p)
 ****
 1  2  3  4  5  16  17  18  19  20  21  22  23  24  25 0
 3-21G
 ****
 27  28  30  31  32  35  37  42  43  44  45  46  47 0
 3-21G
 ****
 48  49 0
 3-21G
 ****


