%nproc=1
%NoSave
%Mem=1900MB
#P OB98/GEN NMR

erre ene a

0 1
  C      756.369     629.340     311.644
  O      756.983     629.874     310.481
  H      755.289     629.395     311.518
  H      756.645     629.933     312.524
  H      756.663     628.305     311.776
  P      758.583     629.995     310.514
  C      758.256     632.264     309.242
  O      758.847     631.582     310.345
  C      758.073     633.737     309.573
  O      757.260     633.891     310.761
  C      759.368     634.487     309.873
  O      760.121     634.811     308.723
  C      758.801     635.720     310.574
  O      758.231     636.599     309.584
  C      757.714     635.079     311.469
  N      758.203     634.723     312.802
  C      757.919     635.628     313.837
  O      757.311     636.669     313.613
  N      758.400     635.359     315.101
  C      759.066     634.255     315.324
  N      759.510     634.042     316.595
  C      759.378     633.267     314.273
  C      758.919     633.574     313.045
  O      759.034     629.412     309.091
  O      759.259     629.378     311.684
  H      758.981     636.948     309.053
  H      760.001     629.577     308.945
  H      759.953     632.379     314.492
  H      759.102     632.888     312.213
  H      756.862     635.755     311.585
  H      759.562     636.291     311.114
  H      759.983     633.925     310.597
  H      757.534     634.205     308.730
  H      759.338     634.773     317.287
  H      757.292     631.801     309.032
  H      760.156     633.301     316.834
  H      758.899     632.159     308.366
  P      761.698     635.022     308.895
  C      761.460     636.895     307.077
  O      762.041     636.484     308.318
  O      762.323     634.038     307.770
  O      762.247     634.720     310.263
  H      763.172     633.648     308.075
  H      761.789     637.885     306.840
  H      760.393     636.884     307.162
  H      761.763     636.223     306.301

 6  7  8  9  10  11  12  13  14  15  16  26  30  31  32  33  35 0
 6-311+G(2d,p)
 ****
 37  38 0
 6-311+G(2d,p)
 ****
 1  2  3  4  5  17  18  19  20  21  22  23  24  25 0
 3-21G
 ****
 27  28  29  34  36  39  40  41  42  43  44  45  46 0
 3-21G
 ****


