%nproc=1
%NoSave
%Mem=1900MB
#P OB98/GEN NMR

erre ene a

0 1
  C      163.266    -422.567     -21.382
  O      163.029    -423.654     -22.257
  H      164.055    -421.939     -21.805
  H      163.601    -422.939     -20.410
  H      162.367    -421.960     -21.256
  P      161.743    -424.577     -22.014
  C      162.802    -426.269     -20.375
  O      161.888    -425.188     -20.539
  C      162.072    -427.528     -19.913
  O      163.017    -428.646     -19.933
  C      161.503    -427.443     -18.482
  O      160.311    -428.243     -18.443
  C      162.617    -428.093     -17.684
  O      162.206    -428.421     -16.378
  C      162.974    -429.251     -18.621
  N      164.238    -429.895     -18.291
  C      164.312    -430.562     -17.075
  O      163.382    -430.654     -16.275
  N      165.529    -431.124     -16.779
  C      166.642    -431.084     -17.568
  O      167.698    -431.623     -17.265
  C      166.505    -430.342     -18.831
  C      165.333    -429.793     -19.135
  O      161.449    -425.575     -23.086
  O      160.545    -423.527     -21.848
  H      160.069    -423.435     -22.696
  H      162.988    -428.548     -15.793
  H      165.603    -431.617     -15.895
  H      167.379    -430.272     -19.467
  H      165.194    -429.231     -20.055
  H      162.175    -429.996     -18.634
  H      163.459    -427.403     -17.581
  H      161.265    -426.417     -18.177
  H      161.283    -427.770     -20.639
  H      163.541    -425.973     -19.624
  H      163.310    -426.459     -21.324
  P      158.836    -427.626     -18.623
  C      158.720    -426.476     -16.315
  O      158.696    -426.299     -17.726
  O      157.741    -428.624     -18.382
  O      158.777    -427.084     -20.127
  H      157.880    -427.225     -20.484
  H      158.619    -425.525     -15.835
  H      159.648    -426.924     -16.028
  H      157.911    -427.112     -16.021

 6  7  8  9  10  11  12  13  14  15  16  27  31  32  33  34  35 0
 6-311+G(2d,p)
 ****
 36  37 0
 6-311+G(2d,p)
 ****
 1  2  3  4  5  17  18  19  20  21  22  23  24  25 0
 3-21G
 ****
 26  28  29  30  38  39  40  41  42  43  44  45 0
 3-21G
 ****


