%nproc=1
%NoSave
%Mem=1900MB
#P OB98/GEN NMR

erre ene a

0 1
  C      508.865     123.337    -120.122
  O      509.112     122.799    -118.842
  H      509.783     123.286    -120.707
  H      508.560     124.383    -120.028
  H      508.086     122.775    -120.642
  P      507.869     122.418    -117.908
  C      508.802     120.092    -117.282
  O      507.755     120.815    -117.903
  C      508.482     118.597    -117.216
  O      507.354     118.381    -116.329
  C      508.064     118.080    -118.596
  O      508.374     116.698    -118.768
  C      506.549     118.247    -118.574
  O      505.885     117.409    -119.516
  C      506.232     117.921    -117.121
  N      502.713     118.026    -113.449
  C      503.760     117.142    -113.639
  N      503.868     116.139    -112.723
  N      504.616     117.223    -114.622
  C      504.341     118.227    -115.484
  C      503.319     119.160    -115.426
  C      502.401     119.079    -114.301
  O      501.445     119.820    -114.103
  N      503.349     120.008    -116.496
  C      504.377     119.602    -117.212
  N      505.023     118.531    -116.630
  O      506.595     122.855    -118.771
  O      507.855     123.059    -116.552
  H      506.347     116.544    -119.524
  H      505.836     123.036    -118.192
  H      502.092     117.930    -112.661
  H      504.708     120.048    -118.149
  H      506.147     116.842    -116.974
  H      506.319     119.283    -118.844
  H      503.141     115.939    -112.064
  H      508.527     118.651    -119.411
  H      504.431     115.330    -113.011
  H      509.330     118.046    -116.795
  H      508.915     120.491    -116.271
  H      509.745     120.261    -117.813
  P      509.868     116.322    -119.217
  C      510.874     115.590    -116.902
  O      510.827     116.540    -117.951
  O      510.273     117.509    -120.225
  O      509.986     114.978    -119.852
  H      510.251     117.174    -121.145
  H      511.569     115.916    -116.157
  H      511.186     114.644    -117.292
  H      509.902     115.493    -116.465

 6  7  8  9  10  11  12  13  14  15  26  29  33  34 0
 6-311+G(2d,p)
 ****
 36  38  39  40  41 0
 6-311+G(2d,p)
 ****
 1  2  3  4  5  16  17  18  19  20  21  22  23  24  25 0
 3-21G
 ****
 27  28  30  31  32  35  37  42  43  44  45  46  47 0
 3-21G
 ****
 48  49 0
 3-21G
 ****


