%nproc=1
%NoSave
%Mem=1900MB
#P OB98/GEN NMR

erre ene a

0 1
  C      -34.811    -348.104     380.017
  O      -35.012    -347.275     381.146
  H      -35.361    -349.038     380.166
  H      -33.749    -348.335     379.905
  H      -35.187    -347.613     379.115
  P      -34.258    -345.856     381.132
  C      -31.755    -345.440     380.597
  O      -32.700    -346.175     381.359
  C      -30.382    -346.105     380.667
  O      -30.413    -347.409     380.044
  C      -29.269    -345.321     379.987
  O      -28.761    -344.307     380.837
  C      -28.252    -346.423     379.718
  O      -27.471    -346.722     380.892
  C      -29.157    -347.608     379.344
  N      -27.808    -350.111     375.169
  C      -27.397    -350.271     376.477
  N      -26.444    -351.207     376.698
  N      -27.866    -349.573     377.479
  C      -28.788    -348.654     377.103
  C      -29.289    -348.411     375.846
  C      -28.782    -349.212     374.750
  O      -29.150    -349.159     373.582
  N      -30.225    -347.410     375.870
  C      -30.263    -347.025     377.132
  N      -29.397    -347.740     377.917
  O      -34.701    -345.186     382.520
  O      -34.576    -344.976     379.971
  H      -27.107    -345.896     381.255
  H      -34.727    -344.217     382.410
  H      -27.420    -350.687     374.444
  H      -30.896    -346.242     377.524
  H      -28.740    -348.565     379.685
  H      -27.544    -346.137     378.935
  H      -25.826    -351.518     375.959
  H      -29.613    -344.903     379.032
  H      -26.120    -351.315     377.651
  H      -30.148    -346.261     381.731
  H      -31.686    -344.424     380.999
  H      -32.095    -345.390     379.556
  P      -28.161    -342.984     380.148
  C      -26.225    -342.571     378.458
  O      -26.787    -343.425     379.446
  O      -27.674    -342.106     381.393
  O      -29.122    -342.248     379.278
  H      -27.544    -341.178     381.117
  H      -25.318    -343.001     378.089
  H      -26.016    -341.615     378.890
  H      -26.918    -342.454     377.651

 6  7  8  9  10  11  12  13  14  15  26  29  33  34 0
 6-311+G(2d,p)
 ****
 36  38  39  40  41 0
 6-311+G(2d,p)
 ****
 1  2  3  4  5  16  17  18  19  20  21  22  23  24  25 0
 3-21G
 ****
 27  28  30  31  32  35  37  42  43  44  45  46  47 0
 3-21G
 ****
 48  49 0
 3-21G
 ****


