%nproc=1
%NoSave
%Mem=1900MB
#P OB98/GEN NMR

erre ene a

0 1
  C      639.390     -47.689    -697.498
  O      640.477     -47.699    -696.604
  H      638.828     -46.759    -697.354
  H      638.731     -48.539    -697.288
  H      639.729     -47.732    -698.539
  P      641.663     -48.757    -696.844
  C      642.229     -48.959    -694.328
  O      642.692     -48.598    -695.613
  C      643.034     -48.261    -693.219
  O      644.441     -48.507    -693.436
  C      642.827     -46.743    -693.292
  O      642.979     -46.120    -692.013
  C      643.967     -46.286    -694.195
  O      644.289     -44.904    -694.042
  C      645.076     -47.252    -693.781
  N      649.344     -45.609    -696.021
  C      648.581     -44.992    -695.055
  N      648.989     -43.776    -694.645
  N      647.503     -45.527    -694.542
  C      647.161     -46.712    -695.121
  C      647.823     -47.401    -696.093
  C      649.039     -46.829    -696.621
  O      649.766     -47.314    -697.500
  N      647.172     -48.572    -696.429
  C      646.111     -48.578    -695.651
  N      646.066     -47.474    -694.815
  O      642.487     -48.125    -698.066
  O      641.235     -50.160    -697.129
  H      644.878     -44.665    -694.760
  H      642.975     -48.830    -698.543
  H      650.186     -45.161    -696.366
  H      645.358     -49.355    -695.628
  H      645.600     -46.870    -692.904
  H      643.639     -46.418    -695.237
  H      649.720     -43.251    -695.125
  H      641.853     -46.484    -693.706
  H      648.305     -43.194    -694.157
  H      642.785     -48.674    -692.242
  H      642.330     -50.052    -694.237
  H      641.163     -48.723    -694.235
  P      641.634     -45.725    -691.207
  C      640.653     -43.843    -692.741
  O      641.310     -44.201    -691.537
  O      642.117     -45.731    -689.675
  O      640.500     -46.683    -691.433
  H      641.776     -46.522    -689.224
  H      640.527     -42.781    -692.777
  H      639.694     -44.317    -692.779
  H      641.241     -44.161    -693.576

 6  7  8  9  10  11  12  13  14  15  26  29  33  34 0
 6-311+G(2d,p)
 ****
 36  38  39  40  41 0
 6-311+G(2d,p)
 ****
 1  2  3  4  5  16  17  18  19  20  21  22  23  24  25 0
 3-21G
 ****
 27  28  30  31  32  35  37  42  43  44  45  46  47 0
 3-21G
 ****
 48  49 0
 3-21G
 ****


