%nproc=1
%NoSave
%Mem=1900MB
#P OB98/GEN NMR

erre ene a

0 1
  C     -797.654     280.954    -525.140
  O     -798.715     280.547    -524.276
  P     -798.508     279.152    -523.497
  C     -801.081     278.868    -523.130
  O     -799.880     278.343    -523.677
  C     -802.271     277.989    -523.550
  O     -802.546     278.140    -524.947
  C     -802.041     276.499    -523.300
  O     -802.296     276.167    -521.953
  C     -803.044     275.888    -524.291
  O     -804.383     275.888    -523.732
  C     -802.956     276.853    -525.480
  N     -802.520     275.249    -530.264
  C     -803.651     275.422    -529.488
  N     -804.831     275.186    -530.083
  N     -803.628     275.811    -528.216
  C     -802.366     275.998    -527.772
  C     -801.168     275.851    -528.441
  C     -801.216     275.472    -529.828
  O     -800.255     275.394    -530.591
  N     -800.098     276.094    -527.616
  C     -800.645     276.461    -526.467
  N     -802.019     276.432    -526.507
  O     -798.497     279.598    -521.971
  O     -797.279     278.377    -523.899
  H     -805.004     275.537    -524.393
  H     -797.576     279.659    -521.640
  H     -802.616     274.971    -531.221
  H     -800.092     276.762    -525.595
  H     -803.933     276.992    -525.970
  H     -802.813     274.854    -524.513
  H     -804.947     274.860    -531.025
  H     -801.021     276.219    -523.602
  H     -805.680     275.303    -529.524
  H     -803.163     278.344    -522.984
  H     -801.231     279.881    -523.536
  H     -800.995     278.925    -522.033
  P     -801.453     274.946    -521.328
  C     -803.315     274.549    -519.552
  O     -802.503     274.008    -520.574
  O     -800.628     275.644    -520.131
  O     -800.543     274.267    -522.285
  H     -799.747     275.226    -520.064
  H     -804.246     273.992    -519.504
  H     -803.517     275.604    -519.723
  H     -802.793     274.429    -518.587
  H     -797.905     281.888    -525.598
  H     -797.507     280.213    -525.898
  H     -796.754     281.066    -524.572

 3  4  5  6  7  8  9  10  11  12  23  26  30  31 0
 6-311+G(2d,p)
 ****
 33  35  36  37  38 0
 6-311+G(2d,p)
 ****
 1  2  13  14  15  16  17  18  19  20  21  22  24  25 0
 3-21G
 ****
 27  28  29  32  34  39  40  41  42  43  44  45  46  47  48  49 0
 3-21G
 ****


