%nproc=1
%NoSave
%Mem=1900MB
#P OB98/GEN NMR

erre ene a

0 1
  C      -64.258     -50.163    -157.862
  O      -65.303     -49.630    -158.645
  H      -63.895     -49.384    -157.187
  H      -63.434     -50.479    -158.508
  H      -64.602     -51.010    -157.264
  P      -66.227     -50.632    -159.484
  C      -66.137     -51.699    -161.833
  O      -65.632     -50.689    -160.973
  C      -65.893     -51.334    -163.303
  O      -66.709     -50.184    -163.644
  C      -64.432     -50.933    -163.547
  O      -64.019     -51.202    -164.884
  C      -64.458     -49.429    -163.330
  O      -63.381     -48.751    -163.977
  C      -65.836     -49.066    -163.880
  N      -67.243     -44.214    -164.570
  C      -66.519     -45.041    -165.406
  N      -66.119     -44.502    -166.584
  N      -66.195     -46.272    -165.108
  C      -66.598     -46.651    -163.872
  C      -67.301     -45.917    -162.942
  C      -67.682     -44.566    -163.300
  O      -68.304     -43.785    -162.586
  N      -67.519     -46.637    -161.794
  C      -66.947     -47.801    -162.024
  N      -66.396     -47.869    -163.281
  O      -67.588     -49.808    -159.689
  O      -66.482     -51.964    -158.847
  H      -63.574     -47.796    -163.942
  H      -68.328     -50.416    -159.870
  H      -67.490     -43.285    -164.860
  H      -66.919     -48.631    -161.327
  H      -65.788     -48.901    -164.963
  H      -64.362     -49.235    -162.258
  H      -66.177     -43.512    -166.761
  H      -63.743     -51.417    -162.858
  H      -65.342     -44.973    -167.057
  H      -66.215     -52.156    -163.952
  H      -67.207     -51.785    -161.631
  H      -65.685     -52.663    -161.594
  P      -62.889     -52.312    -165.128
  C      -60.323     -52.220    -164.488
  O      -61.445     -51.632    -165.109
  O      -63.094     -52.733    -166.655
  O      -62.973     -53.491    -164.206
  H      -63.372     -53.667    -166.717
  H      -59.474     -51.580    -164.607
  H      -60.121     -53.169    -164.940
  H      -60.523     -52.357    -163.446

 6  7  8  9  10  11  12  13  14  15  26  29  33  34 0
 6-311+G(2d,p)
 ****
 36  38  39  40  41 0
 6-311+G(2d,p)
 ****
 1  2  3  4  5  16  17  18  19  20  21  22  23  24  25 0
 3-21G
 ****
 27  28  30  31  32  35  37  42  43  44  45  46  47 0
 3-21G
 ****
 48  49 0
 3-21G
 ****


