%nproc=1
%NoSave
%Mem=1900MB
#P OB98/GEN NMR

erre ene a

0 1
  C      185.718      38.325      32.918
  O      186.744      37.359      32.804
  H      186.042      39.101      33.615
  H      184.813      37.854      33.311
  H      185.508      38.786      31.949
  P      186.622      36.312      31.593
  C      185.248      34.711      33.107
  O      185.311      35.431      31.884
  C      183.813      34.279      33.392
  O      182.954      35.434      33.511
  C      183.197      33.394      32.314
  O      183.564      32.031      32.482
  C      181.717      33.599      32.593
  O      181.328      32.818      33.745
  C      181.661      35.095      32.932
  N      178.100      37.304      30.076
  C      177.968      36.418      31.128
  N      176.708      36.066      31.461
  N      178.978      35.919      31.792
  C      180.180      36.342      31.334
  C      180.439      37.211      30.297
  C      179.314      37.768      29.583
  O      179.376      38.565      28.650
  N      181.785      37.402      30.123
  C      182.339      36.633      31.038
  N      181.409      35.966      31.797
  O      187.832      35.301      31.879
  O      186.720      36.904      30.228
  H      180.446      33.133      34.017
  H      188.568      35.512      31.274
  H      177.289      37.651      29.592
  H      183.404      36.529      31.198
  H      180.896      35.322      33.683
  H      181.083      33.278      31.764
  H      175.887      36.395      30.978
  H      183.434      33.757      31.305
  H      176.588      35.420      32.233
  H      183.805      33.767      34.363
  H      185.604      35.356      33.918
  H      185.896      33.832      33.035
  P      183.631      31.097      31.180
  C      181.355      30.000      31.762
  O      182.118      30.714      30.800
  O      184.229      29.731      31.760
  O      184.462      31.623      30.061
  H      185.132      29.589      31.414
  H      180.375      29.816      31.374
  H      181.281      30.578      32.659
  H      181.835      29.068      31.977

 6  7  8  9  10  11  12  13  14  15  26  29  33  34 0
 6-311+G(2d,p)
 ****
 36  38  39  40  41 0
 6-311+G(2d,p)
 ****
 1  2  3  4  5  16  17  18  19  20  21  22  23  24  25 0
 3-21G
 ****
 27  28  30  31  32  35  37  42  43  44  45  46  47 0
 3-21G
 ****
 48  49 0
 3-21G
 ****


