%nproc=1
%NoSave
%Mem=1900MB
#P OB98/GEN NMR

erre ene a

0 1
  C      -77.142      51.042     -33.326
  O      -77.840      50.930     -32.096
  P      -79.059      49.898     -31.928
  C      -81.344      49.740     -33.123
  O      -80.293      50.588     -32.683
  C      -82.202      50.469     -34.153
  O      -81.384      50.863     -35.272
  C      -83.332      49.634     -34.739
  O      -84.411      49.519     -33.824
  C      -83.634      50.410     -36.015
  O      -84.444      51.559     -35.722
  C      -82.224      50.863     -36.451
  N      -81.658      50.022     -37.500
  C      -81.938      50.397     -38.817
  O      -82.618      51.391     -39.064
  N      -81.406      49.651     -39.840
  C      -80.680      48.609     -39.573
  N      -80.124      47.948     -40.624
  C      -80.408      48.148     -38.200
  C      -80.917      48.896     -37.224
  O      -79.340      49.486     -30.523
  O      -78.694      48.685     -32.897
  H      -85.174      51.250     -35.151
  H      -78.144      47.986     -32.465
  H      -79.808      47.266     -38.028
  H      -80.746      48.636     -36.187
  H      -82.251      51.899     -36.805
  H      -84.154      49.818     -36.775
  H      -82.973      48.630     -34.996
  H      -82.602      51.378     -33.684
  H      -80.191      48.399     -41.530
  H      -81.965      49.478     -32.260
  H      -79.336      47.326     -40.499
  H      -80.917      48.824     -33.542
  P      -85.706      48.704     -34.303
  C      -87.034      48.794     -36.528
  O      -86.294      49.514     -35.559
  O      -86.760      48.967     -33.129
  O      -85.468      47.249     -34.534
  H      -86.806      48.195     -32.536
  H      -87.552      49.511     -37.170
  H      -87.776      48.149     -36.050
  H      -86.358      48.196     -37.144
  H      -76.371      51.779     -33.233
  H      -77.823      51.334     -34.097
  H      -76.705      50.098     -33.575

 3  4  5  6  7  8  9  10  11  12  13  23  27  28  29  30  32 0
 6-311+G(2d,p)
 ****
 34  35 0
 6-311+G(2d,p)
 ****
 1  2  14  15  16  17  18  19  20  21  22  24  25  26 0
 3-21G
 ****
 31  33  36  37  38  39  40  41  42  43  44  45  46 0
 3-21G
 ****


