%nproc=1
%NoSave
%Mem=1900MB
#P OB98/GEN NMR

erre ene a

0 1
  C     -982.378     497.579     896.789
  O     -982.765     498.769     896.114
  H     -983.256     496.940     896.915
  H     -981.979     497.803     897.783
  H     -981.631     497.042     896.199
  P     -981.681     499.939     895.964
  C     -981.293     501.797     894.217
  O     -981.958     500.582     894.525
  C     -981.518     502.185     892.754
  O     -980.678     501.372     891.904
  C     -982.950     501.944     892.297
  O     -983.814     502.955     892.774
  C     -982.754     501.919     890.778
  O     -982.667     503.238     890.241
  C     -981.404     501.171     890.655
  N     -981.565     499.740     890.380
  C     -982.259     499.428     889.206
  O     -982.666     500.313     888.462
  N     -982.455     498.089     888.919
  C     -982.008     497.179     889.712
  N     -982.248     495.879     889.350
  C     -981.275     497.463     890.953
  C     -981.092     498.758     891.236
  O     -980.258     499.578     896.212
  O     -982.204     501.077     896.977
  H     -982.707     503.128     889.274
  H     -981.818     500.941     897.865
  H     -980.921     496.667     891.599
  H     -980.564     499.054     892.121
  H     -980.786     501.594     889.857
  H     -983.591     501.396     890.282
  H     -983.292     500.952     892.605
  H     -981.227     503.239     892.628
  H     -982.769     495.710     888.510
  H     -980.222     501.656     894.408
  H     -981.886     495.083     889.863
  H     -981.636     502.612     894.876
  P     -985.388     502.672     892.935
  C     -987.306     503.734     894.296
  O     -985.905     503.722     894.042
  O     -985.751     501.245     893.193
  O     -985.991     503.250     891.576
  H     -985.813     502.658     890.813
  H     -987.527     504.467     895.044
  H     -987.614     502.769     894.640
  H     -987.830     503.976     893.395

 6  7  8  9  10  11  12  13  14  15  16  26  30  31  32  33  35 0
 6-311+G(2d,p)
 ****
 37  38 0
 6-311+G(2d,p)
 ****
 1  2  3  4  5  17  18  19  20  21  22  23  24  25 0
 3-21G
 ****
 27  28  29  34  36  39  40  41  42  43  44  45  46 0
 3-21G
 ****


