%nproc=1
%NoSave
%Mem=1900MB
#P OB98/GEN NMR

erre ene a

0 1
  C      284.196      24.349    -583.509
  O      283.055      23.505    -583.533
  P      281.651      24.024    -584.112
  C      280.993      25.013    -581.827
  O      280.676      24.066    -582.839
  C      279.786      25.258    -580.929
  O      278.765      25.927    -581.707
  C      279.103      24.005    -580.377
  O      279.696      23.482    -579.202
  C      277.725      24.556    -580.037
  O      277.778      25.282    -578.801
  C      277.471      25.522    -581.207
  N      272.855      25.140    -583.383
  C      273.307      25.871    -582.335
  N      274.546      25.898    -581.801
  C      275.373      25.104    -582.496
  C      275.068      24.305    -583.588
  C      273.735      24.343    -584.034
  N      273.284      23.622    -585.117
  N      276.178      23.611    -584.016
  C      277.144      23.996    -583.208
  N      276.709      24.901    -582.278
  O      281.155      23.269    -585.294
  O      281.905      25.574    -584.422
  H      276.859      25.542    -578.581
  H      281.202      25.912    -585.016
  H      272.568      26.507    -581.854
  H      278.168      23.645    -583.258
  H      276.943      26.424    -580.896
  H      276.971      23.774    -579.920
  H      279.003      23.228    -581.149
  H      280.088      25.928    -580.114
  H      281.277      25.955    -582.315
  H      272.347      23.809    -585.446
  H      273.970      23.153    -585.698
  H      281.849      24.655    -581.252
  P      280.578      22.139    -579.351
  C      278.438      20.697    -578.919
  O      279.766      20.999    -578.565
  O      282.012      22.292    -578.971
  O      280.365      21.748    -580.886
  H      279.465      21.475    -581.129
  H      278.126      19.793    -578.386
  H      278.351      20.511    -579.994
  H      277.771      21.521    -578.637
  H      285.024      23.818    -583.088
  H      283.988      25.214    -582.914
  H      284.437      24.652    -584.507

 3  4  5  6  7  8  9  10  11  12  22  25  29  30  31  32 0
 6-311+G(2d,p)
 ****
 33  36  37 0
 6-311+G(2d,p)
 ****
 1  2  13  14  15  16  17  18  19  20  21  23  24  26 0
 3-21G
 ****
 27  28  34  35  38  39  40  41  42  43  44  45  46  47  48 0
 3-21G
 ****


