%nproc=1
%NoSave
%Mem=1900MB
#P OB98/GEN NMR

erre ene a

0 1
  C       83.829     -11.523     -57.023
  O       84.024     -12.914     -56.878
  H       82.840     -11.322     -57.442
  H       83.894     -11.053     -56.038
  H       84.601     -11.097     -57.668
  P       83.977     -13.797     -58.217
  C       86.406     -14.714     -58.116
  O       85.486     -13.844     -58.761
  C       87.708     -13.971     -57.843
  O       87.476     -12.878     -56.927
  C       88.795     -14.825     -57.198
  O       89.488     -15.617     -58.146
  C       89.692     -13.744     -56.621
  O       90.487     -13.161     -57.670
  C       88.665     -12.729     -56.104
  N       89.888     -11.602     -51.265
  C       90.459     -11.267     -52.441
  N       90.075     -11.611     -53.687
  C       88.979     -12.384     -53.649
  C       88.292     -12.815     -52.527
  C       88.785     -12.384     -51.284
  N       88.213     -12.737     -50.081
  N       87.232     -13.627     -52.885
  C       87.264     -13.656     -54.201
  N       88.306     -12.929     -54.710
  O       83.241     -12.842     -59.271
  O       83.316     -15.128     -58.093
  H       91.057     -13.873     -58.016
  H       82.872     -13.373     -60.002
  H       91.344     -10.639     -52.371
  H       86.558     -14.185     -54.828
  H       89.009     -11.693     -56.206
  H       90.384     -14.121     -55.866
  H       88.395     -15.436     -56.379
  H       88.060     -13.543     -58.790
  H       86.607     -15.570     -58.766
  H       88.748     -12.532     -49.251
  H       87.487     -13.438     -50.082
  H       85.966     -15.071     -57.180
  P       89.268     -17.205     -58.083
  C       88.802     -17.621     -60.608
  O       88.271     -17.557     -59.287
  O       88.362     -17.395     -56.779
  O       90.525     -18.008     -58.024
  H       88.490     -18.282     -56.394
  H       88.019     -17.864     -61.296
  H       89.561     -18.374     -60.651
  H       89.224     -16.673     -60.869

 6  7  8  9  10  11  12  13  14  15  25  28  32  33  34  35 0
 6-311+G(2d,p)
 ****
 36  39  40 0
 6-311+G(2d,p)
 ****
 1  2  3  4  5  16  17  18  19  20  21  22  23  24 0
 3-21G
 ****
 26  27  29  30  31  37  38  41  42  43  44  45  46  47 0
 3-21G
 ****
 48 0
 3-21G
 ****


