%nproc=1
%NoSave
%Mem=1900MB
#P OB98/GEN NMR

erre ene a

0 1
  C      552.233     -74.042    -164.262
  O      551.385     -75.057    -163.768
  H      551.998     -73.875    -165.314
  H      553.283     -74.339    -164.178
  H      552.065     -73.109    -163.715
  P      551.606     -75.574    -162.266
  C      549.555     -74.340    -161.285
  O      550.969     -74.466    -161.298
  C      549.061     -73.859    -159.912
  O      549.681     -72.579    -159.612
  C      547.534     -73.652    -159.840
  O      547.136     -73.907    -158.486
  C      547.414     -72.176    -160.165
  O      546.145     -71.679    -159.840
  C      548.616     -71.621    -159.396
  N      548.991     -70.281    -159.817
  C      548.235     -69.233    -159.278
  O      547.308     -69.468    -158.502
  N      548.534     -67.947    -159.655
  C      549.450     -67.734    -160.546
  N      549.689     -66.437    -160.887
  C      550.231     -68.821    -161.182
  C      549.951     -70.057    -160.769
  O      552.999     -75.985    -161.919
  O      550.588     -76.804    -162.126
  H      546.017     -70.773    -160.197
  H      551.082     -77.646    -162.153
  H      550.975     -68.590    -161.931
  H      550.465     -70.917    -161.179
  H      548.410     -71.604    -158.311
  H      547.554     -72.007    -161.242
  H      546.984     -74.306    -160.527
  H      549.400     -74.564    -159.152
  H      549.127     -65.728    -160.432
  H      549.133     -75.325    -161.510
  H      550.360     -66.153    -161.582
  H      549.230     -73.631    -162.060
  P      545.898     -74.856    -158.107
  C      546.908     -76.261    -156.192
  O      546.452     -76.247    -157.543
  O      544.886     -74.996    -159.196
  O      545.233     -74.168    -156.813
  H      544.274     -74.352    -156.812
  H      547.250     -77.243    -155.941
  H      546.104     -75.986    -155.541
  H      547.712     -75.564    -156.080

 6  7  8  9  10  11  12  13  14  15  16  26  30  31  32  33  35 0
 6-311+G(2d,p)
 ****
 37  38 0
 6-311+G(2d,p)
 ****
 1  2  3  4  5  17  18  19  20  21  22  23  24  25 0
 3-21G
 ****
 27  28  29  34  36  39  40  41  42  43  44  45  46 0
 3-21G
 ****


