%nproc=1
%NoSave
%Mem=1900MB
#P OB98/GEN NMR

erre ene a

0 1
  C     -242.521     433.670     -39.736
  O     -241.459     433.899     -40.641
  H     -243.330     434.382     -39.919
  H     -242.901     432.658     -39.887
  H     -242.166     433.766     -38.706
  P     -240.779     435.353     -40.583
  C     -241.905     436.181     -42.763
  O     -241.767     436.357     -41.362
  C     -243.006     437.093     -43.301
  O     -242.597     438.470     -43.092
  C     -243.300     436.904     -44.797
  O     -244.708     436.741     -45.018
  C     -242.863     438.216     -45.433
  O     -243.677     438.595     -46.537
  C     -242.968     439.195     -44.272
  N     -242.308     443.439     -47.022
  C     -243.411     442.691     -46.783
  N     -243.541     441.629     -45.960
  C     -242.383     441.379     -45.323
  C     -241.185     442.065     -45.446
  C     -241.168     443.133     -46.359
  N     -240.033     443.859     -46.646
  N     -240.213     441.508     -44.640
  C     -240.804     440.470     -44.070
  N     -242.108     440.345     -44.466
  O     -239.528     435.209     -41.577
  O     -240.350     435.784     -39.221
  H     -244.538     438.878     -46.174
  H     -238.708     435.363     -41.068
  H     -244.303     442.980     -47.328
  H     -240.322     439.761     -43.406
  H     -243.996     439.560     -44.135
  H     -241.827     438.113     -45.776
  H     -242.766     436.053     -45.233
  H     -243.915     436.933     -42.706
  H     -242.166     435.136     -42.979
  H     -240.081     444.528     -47.397
  H     -239.158     443.562     -46.243
  H     -240.946     436.411     -43.249
  P     -245.270     435.233     -44.928
  C     -244.860     434.045     -47.212
  O     -244.371     434.314     -45.893
  O     -246.681     435.326     -45.679
  O     -245.428     434.731     -43.532
  H     -247.393     435.015     -45.090
  H     -244.160     433.426     -47.733
  H     -244.983     434.967     -47.741
  H     -245.802     433.542     -47.147

 6  7  8  9  10  11  12  13  14  15  25  28  32  33  34  35 0
 6-311+G(2d,p)
 ****
 36  39  40 0
 6-311+G(2d,p)
 ****
 1  2  3  4  5  16  17  18  19  20  21  22  23  24 0
 3-21G
 ****
 26  27  29  30  31  37  38  41  42  43  44  45  46  47  48 0
 3-21G
 ****


