%nproc=1
%NoSave
%Mem=1900MB
#P OB98/GEN NMR

erre ene a

0 1
  C     2472.589     338.401    -378.226
  O     2471.702     337.310    -378.248
  H     2472.056     339.276    -377.853
  H     2472.946     338.618    -379.241
  H     2473.435     338.195    -377.576
  P     2472.318     335.866    -378.553
  C     2473.048     335.116    -376.157
  O     2473.453     335.611    -377.443
  C     2473.214     336.226    -375.110
  O     2472.371     337.347    -375.479
  C     2472.813     335.790    -373.684
  O     2473.668     336.434    -372.754
  C     2471.410     336.353    -373.560
  O     2471.006     336.568    -372.199
  C     2471.553     337.682    -374.343
  N     2470.258     338.221    -374.744
  C     2469.690     339.200    -373.930
  O     2470.234     339.695    -372.966
  N     2468.448     339.605    -374.306
  C     2467.711     339.121    -375.352
  O     2466.575     339.525    -375.598
  C     2468.351     338.099    -376.149
  C     2469.567     337.688    -375.827
  O     2473.161     336.114    -379.892
  O     2471.339     334.745    -378.689
  H     2472.614     335.959    -380.672
  H     2471.036     335.713    -371.736
  H     2468.024     340.316    -373.713
  H     2467.783     337.687    -376.993
  H     2470.050     336.911    -376.406
  H     2472.093     338.406    -373.745
  H     2470.672     335.697    -374.026
  H     2472.814     334.689    -373.523
  H     2474.245     336.576    -375.122
  H     2473.695     334.261    -375.889
  H     2472.014     334.790    -376.212
  P     2475.009     335.631    -372.333
  C     2476.739     337.598    -372.352
  O     2476.217     336.442    -372.994
  O     2474.884     334.297    -373.234
  O     2475.107     335.402    -370.870
  H     2474.474     334.464    -374.092
  H     2477.537     338.003    -372.939
  H     2477.108     337.332    -371.384
  H     2475.965     338.329    -372.250

 6  7  8  9  10  11  12  13  14  15  16  27  31  32  33  34  35 0
 6-311+G(2d,p)
 ****
 36  37 0
 6-311+G(2d,p)
 ****
 1  2  3  4  5  17  18  19  20  21  22  23  24  25 0
 3-21G
 ****
 26  28  29  30  38  39  40  41  42  43  44  45 0
 3-21G
 ****


