%nproc=1
%NoSave
%Mem=1900MB
#P OB98/GEN NMR

erre ene a

0 1
  C       -3.080    -151.690     -69.534
  O       -3.866    -152.477     -70.408
  H       -3.722    -151.129     -68.850
  H       -2.435    -152.352     -68.947
  H       -2.453    -151.001     -70.107
  P       -4.913    -151.694     -71.339
  C       -3.064    -150.479     -72.707
  O       -4.150    -150.358     -71.799
  C       -3.485    -149.933     -74.069
  O       -3.658    -148.498     -74.000
  C       -2.457    -150.172     -75.171
  O       -2.550    -151.474     -75.726
  C       -2.871    -149.114     -76.179
  O       -4.046    -149.549     -76.887
  C       -3.212    -147.929     -75.261
  N       -1.108    -143.391     -76.367
  C       -2.279    -143.957     -76.736
  N       -2.776    -145.161     -76.382
  C       -1.935    -145.795     -75.549
  C       -0.711    -145.342     -75.079
  C       -0.295    -144.076     -75.527
  N        0.909    -143.508     -75.178
  N       -0.126    -146.285     -74.254
  C       -0.990    -147.280     -74.217
  N       -2.085    -147.046     -75.009
  O       -6.007    -151.145     -70.306
  O       -5.511    -152.482     -72.457
  H       -4.657    -149.926     -76.225
  H       -6.806    -150.847     -70.782
  H       -2.896    -143.370     -77.411
  H       -0.866    -148.191     -73.644
  H       -4.027    -147.308     -75.655
  H       -2.099    -148.915     -76.926
  H       -1.439    -149.958     -74.826
  H       -4.455    -150.373     -74.334
  H       -2.793    -151.535     -72.802
  H        1.182    -142.669     -75.667
  H        1.582    -144.069     -74.673
  H       -2.206    -149.918     -72.325
  P       -1.210    -152.112     -76.342
  C       -0.739    -153.447     -74.160
  O       -0.269    -152.481     -75.092
  O       -0.479    -150.849     -76.996
  O       -1.440    -153.208     -77.329
  H        0.030    -151.110     -77.785
  H       -0.009    -153.585     -73.390
  H       -0.907    -154.376     -74.663
  H       -1.655    -153.107     -73.725

 6  7  8  9  10  11  12  13  14  15  25  28  32  33  34  35 0
 6-311+G(2d,p)
 ****
 36  39  40 0
 6-311+G(2d,p)
 ****
 1  2  3  4  5  16  17  18  19  20  21  22  23  24 0
 3-21G
 ****
 26  27  29  30  31  37  38  41  42  43  44  45  46  47 0
 3-21G
 ****
 48 0
 3-21G
 ****


