%nproc=1
%NoSave
%Mem=1900MB
#P OB98/GEN NMR

erre ene a

0 1
  C       96.260     -63.169       8.810
  O       96.644     -63.200      10.171
  H       95.217     -62.845       8.750
  H       96.348     -64.159       8.357
  H       96.880     -62.453       8.262
  P       98.038     -63.906      10.548
  C       96.869     -66.055      11.371
  O       97.763     -65.485      10.416
  C       96.846     -67.580      11.267
  O       96.560     -67.997       9.915
  C       98.170     -68.246      11.609
  O       98.559     -68.130      12.959
  C       97.988     -69.631      11.004
  O       97.257     -70.508      11.862
  C       97.151     -69.304       9.743
  N       97.943     -69.379       8.518
  C       97.883     -70.586       7.831
  O       97.231     -71.559       8.213
  N       98.632     -70.657       6.686
  C       99.449     -69.678       6.201
  O      100.112     -69.811       5.179
  C       99.503     -68.437       6.995
  C       98.755     -68.346       8.099
  O       98.636     -63.501      11.863
  O       98.977     -63.596       9.290
  H       97.084     -71.323      11.353
  H       99.929     -63.763       9.503
  H       98.591     -71.518       6.162
  H      100.151     -67.645       6.649
  H       98.775     -67.439       8.700
  H       96.315     -70.012       9.648
  H       98.943     -70.113      10.786
  H       98.964     -67.756      11.027
  H       96.038     -67.951      11.909
  H       95.866     -65.664      11.164
  H       97.169     -65.749      12.379
  P      100.068     -67.905      13.429
  C      100.083     -70.306      14.468
  O      100.749     -69.339      13.664
  O      100.296     -66.841      14.455
  O      100.769     -67.419      12.058
  H      101.467     -66.776      12.305
  H      100.674     -71.197      14.518
  H       99.131     -70.533      14.037
  H       99.944     -69.915      15.454

 6  7  8  9  10  11  12  13  14  15  16  26  31  32  33  34  35 0
 6-311+G(2d,p)
 ****
 36  37 0
 6-311+G(2d,p)
 ****
 1  2  3  4  5  17  18  19  20  21  22  23  24  25 0
 3-21G
 ****
 27  28  29  30  38  39  40  41  42  43  44  45 0
 3-21G
 ****


