%nproc=1
%NoSave
%Mem=1900MB
#P OB98/GEN NMR

erre ene a

0 1
  C      181.454     104.313     349.193
  O      181.348     105.505     349.954
  P      181.612     105.398     351.538
  C      184.136     105.404     350.929
  O      183.099     104.822     351.709
  C      185.520     104.975     351.427
  O      186.522     105.438     350.490
  C      185.877     105.521     352.811
  O      186.617     104.509     353.501
  C      186.799     106.687     352.505
  O      187.665     106.978     353.602
  C      187.504     106.183     351.239
  N      188.062     107.276     350.448
  C      189.252     107.851     350.907
  O      189.736     107.481     351.977
  N      189.830     108.856     350.176
  C      189.218     109.323     349.133
  N      189.833     110.319     348.439
  C      187.901     108.830     348.683
  C      187.396     107.805     349.365
  O      180.688     104.168     351.973
  O      181.303     106.642     352.303
  H      188.160     106.162     353.827
  H      180.353     104.289     352.883
  H      187.418     109.281     347.826
  H      186.449     107.362     349.088
  H      188.318     105.492     351.496
  H      186.208     107.583     352.286
  H      184.997     105.798     353.401
  H      185.557     103.880     351.431
  H      190.727     110.652     348.777
  H      184.069     106.497     351.001
  H      189.431     110.746     347.616
  H      184.001     105.125     349.876
  P      186.869     104.714     355.071
  C      184.617     103.552     355.479
  O      185.407     104.699     355.731
  O      187.233     106.275     355.136
  O      187.918     103.886     355.732
  H      187.474     106.517     356.047
  H      183.712     103.610     356.092
  H      185.161     102.641     355.747
  H      184.324     103.523     354.426
  H      181.255     104.528     348.164
  H      180.744     103.597     349.551
  H      182.442     103.915     349.290

 3  4  5  6  7  8  9  10  11  12  13  21  23  27  28  29  30  32 0
 6-311+G(2d,p)
 ****
 34  35 0
 6-311+G(2d,p)
 ****
 1  2  14  15  16  17  18  19  20  22  24  25  26 0
 3-21G
 ****
 31  33  36  37  38  39  40  41  42  43  44  45  46 0
 3-21G
 ****


