%nproc=1
%NoSave
%Mem=1900MB
#P OB98/GEN NMR

erre ene a

0 1
  C     -191.748     158.117     -82.246
  O     -192.342     157.312     -83.272
  P     -192.007     157.538     -84.825
  C     -194.319     158.548     -85.304
  O     -193.361     157.571     -85.695
  C     -195.772     158.070     -85.468
  O     -195.995     157.535     -86.802
  C     -196.213     156.981     -84.480
  O     -197.608     157.189     -84.261
  C     -195.978     155.711     -85.281
  O     -196.689     154.586     -84.779
  C     -196.428     156.170     -86.665
  N     -197.270     152.126     -89.694
  C     -198.087     152.815     -88.870
  N     -197.803     153.899     -88.124
  C     -196.534     154.299     -88.323
  C     -195.587     153.703     -89.141
  C     -195.995     152.556     -89.845
  N     -195.153     151.822     -90.651
  N     -194.381     154.376     -89.066
  C     -194.598     155.353     -88.207
  N     -195.884     155.350     -87.733
  O     -190.961     156.615     -85.366
  O     -191.485     159.052     -84.901
  H     -197.621     154.849     -84.648
  H     -190.679     159.086     -85.449
  H     -199.102     152.433     -88.788
  H     -193.859     156.072     -87.875
  H     -197.522     156.155     -86.754
  H     -194.909     155.464     -85.260
  H     -195.658     157.000     -83.539
  H     -196.419     158.952     -85.375
  H     -194.165     159.450     -85.907
  H     -195.511     150.962     -91.037
  H     -194.172     152.050     -90.672
  H     -194.141     158.814     -84.255
  P     -198.151     158.433     -83.407
  C     -199.046     157.061     -81.439
  O     -199.382     157.890     -82.538
  O     -198.438     159.663     -84.203
  O     -197.013     158.697     -82.309
  H     -197.108     159.598     -81.951
  H     -198.788     156.061     -81.802
  H     -199.910     156.988     -80.773
  H     -198.200     157.477     -80.880
  H     -192.107     157.799     -81.290
  H     -192.009     159.143     -82.402
  H     -190.684     158.011     -82.280

 3  4  5  6  7  8  9  10  11  12  22  25  29  30  31  32 0
 6-311+G(2d,p)
 ****
 33  36  37 0
 6-311+G(2d,p)
 ****
 1  2  13  14  15  16  17  18  19  20  21  23  24  26 0
 3-21G
 ****
 27  28  34  35  38  39  40  41  42  43  44  45  46  47  48 0
 3-21G
 ****


