%nproc=1
%NoSave
%Mem=1900MB
#P OB98/GEN NMR

erre ene a

0 1
  C     -891.360    -770.519    -199.570
  O     -891.040    -770.169    -198.193
  P     -892.280    -770.114    -197.219
  C     -891.850    -772.072    -195.564
  O     -892.620    -771.604    -196.676
  C     -892.350    -773.461    -195.107
  O     -893.750    -773.425    -194.851
  C     -892.040    -774.582    -196.101
  O     -891.810    -775.792    -195.341
  C     -893.390    -774.743    -196.835
  O     -893.480    -776.007    -197.451
  C     -894.360    -774.493    -195.641
  N     -895.690    -774.135    -196.106
  C     -896.480    -775.134    -196.738
  O     -895.980    -776.226    -196.930
  N     -897.740    -774.833    -197.125
  C     -898.210    -773.644    -196.949
  N     -899.500    -773.420    -197.379
  C     -897.420    -772.549    -196.369
  C     -896.190    -772.866    -195.956
  O     -893.520    -769.758    -198.148
  O     -892.110    -769.066    -196.113
  H     -894.390    -776.091    -197.889
  H     -894.020    -769.021    -197.785
  H     -897.860    -771.566    -196.280
  H     -895.530    -772.138    -195.507
  H     -894.470    -775.391    -195.018
  H     -893.490    -773.954    -197.597
  H     -891.210    -774.389    -196.780
  H     -891.870    -773.687    -194.159
  H     -900.000    -774.204    -197.766
  H     -891.930    -771.367    -194.724
  H     -899.960    -772.526    -197.310
  H     -890.790    -772.118    -195.877
  P     -890.300    -776.320    -195.335
  C     -890.340    -776.651    -192.775
  O     -889.760    -775.983    -193.848
  O     -889.550    -775.279    -196.242
  O     -890.050    -777.729    -195.775
  H     -888.620    -775.549    -196.336
  H     -889.810    -776.365    -191.845
  H     -890.310    -777.700    -192.918
  H     -891.410    -776.341    -192.616
  H     -890.463    -770.531    -200.153
  H     -892.037    -769.796    -199.974
  H     -891.815    -771.487    -199.595

 3  4  5  6  7  8  9  10  11  12  13  21  23  27  28  29  30  32 0
 6-311+G(2d,p)
 ****
 34  35 0
 6-311+G(2d,p)
 ****
 1  2  14  15  16  17  18  19  20  22  24  25  26 0
 3-21G
 ****
 31  33  36  37  38  39  40  41  42  43  44  45  46 0
 3-21G
 ****


