%nproc=1
%NoSave
%Mem=1900MB
#P OB98/GEN NMR

erre ene a

0 1
  C      169.482    -864.197      84.403
  O      169.162    -863.740      85.700
  P      167.846    -862.853      85.966
  C      168.423    -862.712      88.469
  O      168.182    -861.986      87.277
  C      168.793    -861.754      89.609
  O      170.135    -861.257      89.367
  C      167.914    -860.509      89.728
  O      166.706    -860.704      90.474
  C      168.841    -859.585      90.513
  O      168.831    -859.954      91.913
  C      170.201    -859.907      89.898
  N      171.617    -855.105      88.821
  C      171.363    -855.727      89.986
  N      170.967    -857.009      90.197
  C      170.901    -857.670      89.028
  C      171.146    -857.168      87.763
  C      171.517    -855.819      87.665
  N      171.818    -855.187      86.474
  N      170.949    -858.149      86.800
  C      170.613    -859.222      87.486
  N      170.569    -858.976      88.841
  O      166.569    -863.634      86.013
  O      167.864    -861.762      84.796
  H      168.898    -860.921      91.943
  H      166.988    -861.352      84.706
  H      171.454    -855.117      90.883
  H      170.380    -860.188      87.057
  H      171.015    -859.899      90.643
  H      168.536    -858.532      90.451
  H      167.710    -860.062      88.743
  H      168.803    -862.319      90.542
  H      169.267    -863.397      88.286
  H      172.196    -854.264      86.525
  H      171.891    -855.766      85.641
  H      167.544    -863.316      88.724
  P      165.513    -859.660      90.206
  C      164.181    -860.306      92.364
  O      164.913    -859.332      91.661
  O      164.522    -860.096      89.178
  O      166.304    -858.308      89.815
  H      166.814    -857.913      90.535
  H      164.004    -859.948      93.398
  H      164.738    -861.243      92.423
  H      163.212    -860.477      91.893
  H      170.388    -864.765      84.438
  H      169.612    -863.358      83.751
  H      168.688    -864.814      84.036

 3  4  5  6  7  8  9  10  11  12  22  25  29  30  31  32 0
 6-311+G(2d,p)
 ****
 33  36  37 0
 6-311+G(2d,p)
 ****
 1  2  13  14  15  16  17  18  19  20  21  23  24  26 0
 3-21G
 ****
 27  28  34  35  38  39  40  41  42  43  44  45  46  47  48 0
 3-21G
 ****


