%nproc=1
%NoSave
%Mem=1900MB
#P OB98/GEN NMR

erre ene a

0 1
  C     -320.969       6.675      66.838
  O     -322.053       7.210      66.109
  H     -320.859       7.240      67.767
  H     -320.047       6.766      66.259
  H     -321.155       5.625      67.082
  P     -322.415       6.508      64.711
  C     -321.504       8.625      63.499
  O     -322.592       7.725      63.671
  C     -321.926      10.049      63.876
  O     -322.860      10.544      62.884
  C     -322.605      10.138      65.243
  O     -322.113      11.284      65.941
  C     -324.078      10.301      64.917
  O     -324.790      10.975      65.953
  C     -324.030      11.030      63.570
  N     -325.239      10.801      62.783
  C     -326.013      11.924      62.478
  O     -325.673      13.038      62.877
  N     -327.180      11.756      61.774
  C     -327.571      10.560      61.457
  N     -328.746      10.455      60.780
  C     -326.812       9.344      61.800
  C     -325.664       9.534      62.453
  O     -323.908       5.993      64.944
  O     -321.466       5.444      64.268
  H     -325.714      11.111      65.647
  H     -324.185       5.355      64.242
  H     -327.187       8.368      61.529
  H     -325.043       8.696      62.748
  H     -323.909      12.111      63.720
  H     -324.534       9.310      64.789
  H     -322.439       9.255      65.859
  H     -321.045      10.697      63.824
  H     -329.245      11.311      60.570
  H     -321.184       8.601      62.453
  H     -329.161       9.576      60.510
  H     -320.673       8.311      64.138
  P     -320.913      11.014      66.976
  C     -322.266      11.218      69.179
  O     -321.272      11.784      68.340
  O     -319.697      11.854      66.368
  O     -320.584       9.568      67.142
  H     -319.095      11.268      65.870
  H     -322.397      11.835      70.043
  H     -321.961      10.239      69.483
  H     -323.190      11.153      68.643

 6  7  8  9  10  11  12  13  14  15  16  26  30  31  32  33  35 0
 6-311+G(2d,p)
 ****
 37  38 0
 6-311+G(2d,p)
 ****
 1  2  3  4  5  17  18  19  20  21  22  23  24  25 0
 3-21G
 ****
 27  28  29  34  36  39  40  41  42  43  44  45  46 0
 3-21G
 ****


