%nproc=1
%NoSave
%Mem=1900MB
#P OB98/GEN NMR

erre ene a

0 1
  C       -8.913    -169.128     -45.868
  O       -8.537    -169.788     -47.058
  H       -8.067    -168.530     -45.516
  H       -9.167    -169.859     -45.096
  H       -9.762    -168.462     -46.041
  P       -9.658    -170.572     -47.894
  C       -9.237    -172.792     -46.652
  O       -9.232    -172.118     -47.904
  C       -8.174    -173.888     -46.648
  O       -8.133    -174.535     -45.358
  C       -8.424    -174.999     -47.662
  O       -8.096    -174.573     -48.970
  C       -7.531    -176.098     -47.102
  O       -6.162    -175.883     -47.475
  C       -7.725    -175.905     -45.578
  N       -8.691    -176.838     -44.999
  C       -8.207    -177.701     -44.020
  O       -7.029    -177.728     -43.672
  N       -9.128    -178.551     -43.467
  C      -10.434    -178.676     -43.848
  O      -11.205    -179.493     -43.355
  C      -10.880    -177.762     -44.910
  C      -10.004    -176.900     -45.426
  O       -9.985    -170.004     -49.235
  O      -10.930    -170.557     -46.921
  H       -5.931    -174.980     -47.183
  H      -11.552    -169.861     -47.203
  H       -8.795    -179.193     -42.766
  H      -11.907    -177.837     -45.240
  H      -10.313    -176.221     -46.214
  H       -6.770    -176.036     -45.056
  H       -7.805    -177.088     -47.465
  H       -9.466    -175.334     -47.608
  H       -7.198    -173.416     -46.819
  H      -10.225    -173.241     -46.498
  H       -9.048    -172.065     -45.855
  P       -9.069    -174.886     -50.201
  C       -8.734    -177.412     -49.940
  O       -8.626    -176.301     -50.820
  O       -9.209    -173.786     -51.199
  O      -10.474    -175.219     -49.509
  H      -11.091    -174.472     -49.636
  H       -8.417    -178.300     -50.446
  H       -9.752    -177.523     -49.629
  H       -8.115    -177.249     -49.083

 6  7  8  9  10  11  12  13  14  15  16  26  31  32  33  34  35 0
 6-311+G(2d,p)
 ****
 36  37 0
 6-311+G(2d,p)
 ****
 1  2  3  4  5  17  18  19  20  21  22  23  24  25 0
 3-21G
 ****
 27  28  29  30  38  39  40  41  42  43  44  45 0
 3-21G
 ****


