%nproc=1
%NoSave
%Mem=1900MB
#P OB98/GEN NMR

erre ene a

0 1
  C     -899.323    -547.706    2038.666
  O     -898.403    -548.523    2037.960
  P     -897.403    -547.933    2036.824
  C     -895.043    -548.957    2037.320
  O     -895.923    -547.840    2037.470
  C     -894.773    -549.645    2038.640
  O     -895.983    -550.360    2039.088
  C     -893.703    -550.722    2038.640
  O     -892.373    -550.171    2038.574
  C     -894.003    -551.481    2039.960
  O     -893.383    -550.813    2041.073
  C     -895.533    -551.373    2040.044
  N     -896.203    -552.644    2039.850
  C     -896.013    -553.613    2040.820
  O     -895.253    -553.436    2041.782
  N     -896.703    -554.803    2040.698
  C     -897.413    -555.031    2039.679
  N     -898.123    -556.257    2039.583
  C     -897.563    -554.066    2038.518
  C     -896.923    -552.914    2038.693
  O     -897.863    -546.671    2036.204
  O     -897.283    -549.132    2035.728
  H     -897.063    -548.725    2034.878
  H     -893.583    -551.365    2041.872
  H     -898.133    -554.298    2037.641
  H     -896.963    -552.141    2037.920
  H     -895.813    -550.972    2041.043
  H     -893.593    -552.513    2039.930
  H     -893.853    -551.409    2037.776
  H     -894.533    -548.870    2039.421
  H     -897.993    -556.868    2040.403
  H     -894.093    -548.618    2036.902
  H     -898.693    -556.481    2038.831
  H     -895.493    -549.668    2036.582
  P     -891.983    -549.469    2037.185
  C     -891.733    -547.003    2038.029
  O     -892.473    -547.904    2037.255
  O     -892.973    -550.133    2036.085
  O     -890.523    -549.617    2036.804
  H     -892.493    -550.298    2035.228
  H     -891.863    -546.001    2037.599
  H     -890.653    -547.224    2037.996
  H     -892.063    -546.994    2039.031
  H     -899.874    -548.306    2039.360
  H     -900.000    -547.250    2037.974
  H     -898.790    -546.945    2039.197

 3  4  5  6  7  8  9  10  11  12  13  24  27  28  29  30  32 0
 6-311+G(2d,p)
 ****
 34  35 0
 6-311+G(2d,p)
 ****
 1  2  14  15  16  17  18  19  20  21  22  23  25  26 0
 3-21G
 ****
 31  33  36  37  38  39  40  41  42  43  44  45  46 0
 3-21G
 ****


