%nproc=1
%NoSave
%Mem=1900MB
#P OB98/GEN NMR

erre ene a

0 1
  C     -893.020     101.730     664.829
  O     -894.230     101.115     665.221
  H     -893.250     102.716     664.411
  H     -892.530     101.129     664.061
  H     -892.360     101.854     665.687
  P     -894.120      99.692     665.947
  C     -895.170      99.942     668.306
  O     -893.980      99.992     667.521
  C     -895.500     101.317     668.873
  O     -895.710     102.249     667.770
  C     -896.760     101.353     669.760
  O     -896.530     102.309     670.812
  C     -897.810     101.916     668.825
  O     -898.910     102.493     669.522
  C     -896.970     102.913     668.031
  N     -899.440     106.709     665.845
  C     -898.860     106.620     667.091
  N     -898.940     107.715     667.877
  N     -898.240     105.552     667.533
  C     -898.200     104.551     666.615
  C     -898.740     104.504     665.359
  C     -899.450     105.689     664.898
  O     -900.000     105.815     663.810
  N     -898.520     103.297     664.760
  C     -897.840     102.605     665.657
  N     -897.620     103.325     666.802
  O     -892.650      99.205     665.532
  O     -895.160      98.693     665.574
  H     -898.550     103.127     670.182
  H     -892.690      98.647     664.733
  H     -899.910     107.550     665.556
  H     -897.480     101.591     665.533
  H     -896.760     103.829     668.603
  H     -898.200     101.124     668.173
  H     -899.350     108.581     667.596
  H     -897.030     100.389     670.195
  H     -898.480     107.681     668.784
  H     -894.620     101.686     669.425
  H     -895.020      99.237     669.130
  H     -896.000      99.591     667.679
  P     -896.570     101.786     672.322
  C     -894.110     102.236     673.062
  O     -895.100     101.276     672.704
  O     -897.400     100.427     672.206
  O     -897.200     102.743     673.287
  H     -897.860     100.248     673.052
  H     -893.192     101.735     673.286
  H     -894.437     102.782     673.922
  H     -893.957     102.912     672.247

 6  7  8  9  10  11  12  13  14  15  26  29  33  34 0
 6-311+G(2d,p)
 ****
 36  38  39  40  41 0
 6-311+G(2d,p)
 ****
 1  2  3  4  5  16  17  18  19  20  21  22  23  24  25 0
 3-21G
 ****
 27  28  30  31  32  35  37  42  43  44  45  46  47 0
 3-21G
 ****
 48  49 0
 3-21G
 ****


