%nproc=1
%NoSave
%Mem=1900MB
#P OB98/GEN NMR

erre ene a

0 1
  C      130.587    -300.887      67.841
  O      130.905    -299.649      68.450
  H      129.503    -301.021      67.870
  H      131.058    -301.716      68.371
  H      130.910    -300.881      66.795
  P      132.445    -299.345      68.779
  C      132.564    -298.099      66.525
  O      133.148    -299.100      67.354
  C      133.598    -297.493      65.577
  O      134.733    -296.990      66.311
  C      134.184    -298.482      64.581
  O      133.273    -298.971      63.624
  C      135.436    -297.752      64.118
  O      135.162    -296.798      63.095
  C      135.868    -297.029      65.417
  N      137.028    -297.656      66.043
  C      138.259    -297.372      65.466
  O      138.400    -296.659      64.478
  N      139.343    -297.968      66.056
  C      139.305    -298.837      67.102
  O      140.311    -299.358      67.572
  C      137.967    -299.130      67.644
  C      136.907    -298.536      67.102
  O      133.140    -300.367      69.630
  O      132.419    -297.881      69.424
  H      134.382    -296.286      63.382
  H      133.266    -297.681      69.893
  H      140.249    -297.764      65.660
  H      137.900    -299.825      68.471
  H      135.910    -298.732      67.485
  H      136.125    -295.983      65.199
  H      136.192    -298.439      63.728
  H      134.531    -299.362      65.139
  H      133.132    -296.643      65.065
  H      132.173    -297.312      67.179
  H      131.737    -298.532      65.957
  P      133.431    -300.370      62.882
  C      131.118    -301.229      63.748
  O      132.518    -301.453      63.636
  O      134.817    -300.771      62.491
  O      132.594    -300.112      61.523
  H      133.039    -300.618      60.814
  H      130.668    -302.044      64.275
  H      130.689    -301.156      62.770
  H      130.944    -300.318      64.282

 6  7  8  9  10  11  12  13  14  15  16  26  31  32  33  34  35 0
 6-311+G(2d,p)
 ****
 36  37 0
 6-311+G(2d,p)
 ****
 1  2  3  4  5  17  18  19  20  21  22  23  24  25 0
 3-21G
 ****
 27  28  29  30  38  39  40  41  42  43  44  45 0
 3-21G
 ****


