%nproc=1
%NoSave
%Mem=1900MB
#P OB98/GEN NMR

erre ene a

0 1
  C     -227.089     -50.531    -225.616
  O     -227.970     -51.436    -226.252
  H     -227.585     -50.125    -224.730
  H     -226.831     -49.703    -226.282
  H     -226.179     -51.050    -225.299
  P     -227.575     -51.972    -227.716
  C     -228.598     -53.661    -229.385
  O     -228.695     -53.063    -228.091
  C     -229.931     -54.288    -229.800
  O     -230.328     -55.294    -228.845
  C     -231.087     -53.299    -229.839
  O     -231.000     -52.350    -230.882
  C     -232.301     -54.214    -229.755
  O     -232.724     -54.714    -231.020
  C     -231.767     -55.377    -228.883
  N     -232.347     -55.370    -227.545
  C     -233.695     -55.708    -227.467
  O     -234.387     -55.978    -228.452
  N     -234.247     -55.684    -226.216
  C     -233.607     -55.314    -225.068
  O     -234.167     -55.272    -223.977
  C     -232.188     -54.939    -225.215
  C     -231.633     -54.985    -226.428
  O     -226.168     -52.472    -227.869
  O     -227.930     -50.745    -228.678
  H     -231.947     -55.133    -231.438
  H     -227.492     -50.844    -229.557
  H     -235.220     -55.937    -226.138
  H     -231.649     -54.641    -224.326
  H     -230.587     -54.713    -226.564
  H     -232.010     -56.342    -229.348
  H     -233.160     -53.699    -229.313
  H     -231.072     -52.723    -228.905
  H     -229.796     -54.775    -230.773
  H     -227.833     -54.444    -229.331
  H     -228.285     -52.909    -230.115
  P     -231.312     -50.793    -230.682
  C     -230.799     -48.599    -231.982
  O     -230.462     -49.966    -231.769
  O     -231.353     -50.293    -229.273
  O     -232.811     -50.693    -231.276
  H     -233.285     -50.017    -230.755
  H     -230.153     -48.184    -232.727
  H     -230.683     -48.056    -231.067
  H     -231.815     -48.529    -232.312

 6  7  8  9  10  11  12  13  14  15  16  26  31  32  33  34  35 0
 6-311+G(2d,p)
 ****
 36  37 0
 6-311+G(2d,p)
 ****
 1  2  3  4  5  17  18  19  20  21  22  23  24  25 0
 3-21G
 ****
 27  28  29  30  38  39  40  41  42  43  44  45 0
 3-21G
 ****


