%nproc=1
%NoSave
%Mem=1900MB
#P OB98/GEN NMR

erre ene a

0 1
  C     -199.630     164.267    -898.930
  O     -200.578     164.903    -898.100
  H     -199.338     164.964    -899.720
  H     -200.062     163.373    -899.400
  H     -198.735     163.988    -898.370
  P     -201.067     164.151    -896.770
  C     -203.555     164.292    -897.450
  O     -202.459     163.441    -897.110
  C     -204.863     163.497    -897.440
  O     -204.829     162.488    -898.490
  C     -205.093     162.715    -896.130
  O     -205.552     163.604    -895.100
  C     -206.129     161.705    -896.590
  O     -207.443     162.281    -896.640
  C     -205.612     161.353    -898.020
  N     -204.841     160.107    -898.070
  C     -205.096     159.270    -899.130
  O     -205.955     159.512    -900.000
  N     -204.368     158.113    -899.150
  C     -203.497     157.682    -898.200
  O     -202.927     156.581    -898.240
  C     -203.296     158.599    -897.070
  C     -203.954     159.756    -897.060
  O     -201.070     164.990    -895.520
  O     -200.042     162.922    -896.650
  H     -207.598     162.690    -895.780
  H     -199.397     163.098    -895.930
  H     -204.548     157.467    -899.930
  H     -202.605     158.301    -896.290
  H     -203.811     160.450    -896.240
  H     -206.463     161.280    -898.720
  H     -206.181     160.831    -895.920
  H     -204.187     162.195    -895.840
  H     -205.683     164.176    -897.650
  H     -203.387     164.718    -898.460
  H     -203.610     165.116    -896.710
  P     -205.966     163.003    -893.660
  C     -208.383     163.921    -893.720
  O     -207.543     162.737    -893.650
  O     -205.434     163.752    -892.490
  O     -205.335     161.501    -893.700
  H     -204.679     161.414    -892.980
  H     -209.412     163.629    -893.707
  H     -208.175     164.453    -894.625
  H     -208.180     164.552    -892.880

 6  7  8  9  10  11  12  13  14  15  16  26  31  32  33  34  35 0
 6-311+G(2d,p)
 ****
 36  37 0
 6-311+G(2d,p)
 ****
 1  2  3  4  5  17  18  19  20  21  22  23  24  25 0
 3-21G
 ****
 27  28  29  30  38  39  40  41  42  43  44  45 0
 3-21G
 ****


