%nproc=1
%NoSave
%Mem=1900MB
#P OB98/GEN NMR

erre ene a

0 1
  C     -171.046     440.149    -412.839
  O     -171.996     439.271    -413.416
  H     -170.983     439.943    -411.769
  H     -171.365     441.186    -412.982
  H     -170.057     439.994    -413.291
  P     -172.118     439.292    -415.016
  C     -173.848     437.310    -414.997
  O     -173.544     438.645    -415.384
  C     -175.271     437.244    -414.445
  O     -176.217     437.839    -415.354
  C     -175.788     435.822    -414.265
  O     -175.173     435.143    -413.197
  C     -177.271     436.095    -414.061
  O     -177.534     436.530    -412.715
  C     -177.514     437.251    -415.064
  N     -178.187     436.810    -416.271
  C     -179.494     436.329    -416.094
  O     -180.001     436.310    -414.977
  N     -180.172     435.850    -417.185
  C     -179.612     435.883    -418.355
  N     -180.339     435.384    -419.404
  C     -178.258     436.408    -418.594
  C     -177.605     436.837    -417.522
  O     -171.086     438.152    -415.461
  O     -171.888     440.621    -415.656
  H     -177.541     435.725    -412.165
  H     -171.240     437.297    -415.024
  H     -177.829     436.417    -419.591
  H     -176.603     437.241    -417.603
  H     -178.121     438.044    -414.599
  H     -177.886     435.208    -414.233
  H     -175.680     435.257    -415.203
  H     -175.300     437.805    -413.505
  H     -181.258     435.013    -419.202
  H     -173.130     436.945    -414.259
  H     -179.992     435.326    -420.350
  H     -173.758     436.685    -415.894
  P     -174.621     433.659    -413.380
  C     -173.203     434.000    -411.262
  O     -174.148     433.168    -411.923
  O     -173.594     433.481    -414.460
  O     -175.952     432.789    -413.608
  H     -176.586     432.832    -412.874
  H     -172.963     433.579    -410.308
  H     -173.621     434.976    -411.126
  H     -172.315     434.072    -411.854

 6  7  8  9  10  11  12  13  14  15  16  26  30  31  32  33  35 0
 6-311+G(2d,p)
 ****
 37  38 0
 6-311+G(2d,p)
 ****
 1  2  3  4  5  17  18  19  20  21  22  23  24  25 0
 3-21G
 ****
 27  28  29  34  36  39  40  41  42  43  44  45  46 0
 3-21G
 ****


