%nproc=1
%NoSave
%Mem=1900MB
#P OB98/GEN NMR

erre ene a

0 1
  C     -205.706     114.376    -709.194
  O     -206.583     114.705    -708.139
  H     -204.676     114.458    -708.835
  H     -205.839     115.069    -710.028
  H     -205.871     113.350    -709.535
  P     -208.154     114.467    -708.336
  C     -208.448     116.968    -708.886
  O     -208.679     115.631    -709.305
  C     -209.745     117.588    -708.375
  O     -209.469     118.826    -707.684
  C     -210.741     117.936    -709.472
  O     -211.392     116.777    -709.956
  C     -211.647     118.916    -708.735
  O     -212.593     118.217    -707.914
  C     -210.621     119.681    -707.865
  N     -210.231     120.972    -708.434
  C     -210.863     122.095    -707.912
  O     -211.734     122.036    -707.051
  N     -210.470     123.300    -708.437
  C     -209.588     123.476    -709.468
  O     -209.311     124.573    -709.936
  C     -208.982     122.250    -710.001
  C     -209.320     121.075    -709.472
  O     -208.949     114.285    -707.085
  O     -208.223     113.166    -709.271
  H     -212.879     118.841    -707.223
  H     -208.416     112.381    -708.727
  H     -210.925     124.125    -708.084
  H     -208.281     122.347    -710.822
  H     -208.884     120.161    -709.854
  H     -211.035     119.866    -706.862
  H     -212.221     119.549    -709.408
  H     -210.237     118.472    -710.286
  H     -210.194     116.891    -707.650
  H     -208.082     117.547    -709.742
  H     -207.684     116.966    -708.105
  P     -211.482     116.484    -711.526
  C     -214.008     116.901    -711.469
  O     -212.780     117.248    -712.089
  O     -211.394     115.043    -711.913
  O     -210.266     117.321    -712.150
  H     -209.547     116.715    -712.410
  H     -214.803     117.462    -711.914
  H     -213.955     117.124    -710.424
  H     -214.192     115.855    -711.602

 6  7  8  9  10  11  12  13  14  15  16  26  31  32  33  34  35 0
 6-311+G(2d,p)
 ****
 36  37 0
 6-311+G(2d,p)
 ****
 1  2  3  4  5  17  18  19  20  21  22  23  24  25 0
 3-21G
 ****
 27  28  29  30  38  39  40  41  42  43  44  45 0
 3-21G
 ****


