%nproc=1
%NoSave
%Mem=1900MB
#P OB98/GEN NMR

erre ene a

0 1
  C      260.518    -164.261     451.396
  O      259.718    -163.187     450.931
  H      261.566    -163.948     451.387
  H      260.410    -165.135     450.746
  H      260.238    -164.526     452.418
  P      258.151    -163.451     450.705
  C      256.985    -161.616     452.112
  O      257.436    -162.968     452.055
  C      257.444    -160.967     453.412
  O      258.885    -160.875     453.445
  C      256.935    -159.541     453.585
  O      255.570    -159.532     453.957
  C      257.906    -159.012     454.627
  O      257.539    -159.440     455.941
  C      259.226    -159.675     454.180
  N      260.063    -158.789     453.367
  C      260.668    -157.727     454.049
  O      260.499    -157.578     455.258
  N      261.437    -156.843     453.327
  C      261.595    -157.016     452.052
  N      262.371    -156.105     451.399
  C      260.986    -158.129     451.302
  C      260.231    -158.968     452.013
  O      257.756    -164.827     450.256
  O      257.730    -162.326     449.644
  H      257.467    -160.415     455.897
  H      257.837    -162.660     448.734
  H      261.154    -158.235     450.237
  H      259.747    -159.813     451.538
  H      259.815    -159.993     455.055
  H      257.936    -157.925     454.630
  H      257.085    -158.973     452.657
  H      257.132    -161.600     454.252
  H      262.763    -155.353     451.950
  H      255.892    -161.638     452.067
  H      262.639    -156.188     450.426
  H      257.357    -161.051     451.249
  P      254.441    -159.070     452.915
  C      253.223    -161.345     452.995
  O      253.950    -160.418     452.190
  O      254.836    -157.957     451.999
  O      253.206    -158.710     453.870
  H      253.350    -157.845     454.334
  H      252.953    -162.195     452.404
  H      252.337    -160.875     453.369
  H      253.833    -161.660     453.816

 6  7  8  9  10  11  12  13  14  15  16  26  30  31  32  33  35 0
 6-311+G(2d,p)
 ****
 37  38 0
 6-311+G(2d,p)
 ****
 1  2  3  4  5  17  18  19  20  21  22  23  24  25 0
 3-21G
 ****
 27  28  29  34  36  39  40  41  42  43  44  45  46 0
 3-21G
 ****


