%nproc=1
%NoSave
%Mem=1900MB
#P OB98/GEN NMR

erre ene a

0 1
  C      -82.799    -207.978     110.731
  O      -82.148    -207.266     109.699
  H      -82.817    -207.386     111.650
  H      -83.827    -208.183     110.421
  H      -82.288    -208.929     110.910
  P      -80.652    -206.776     110.008
  C      -80.318    -204.214     110.215
  O      -80.783    -205.405     110.833
  C      -81.471    -203.497     109.524
  O      -82.545    -203.264     110.457
  C      -81.122    -202.123     108.962
  O      -80.430    -202.215     107.726
  C      -82.513    -201.531     108.784
  O      -83.096    -202.025     107.565
  C      -83.270    -202.094     109.996
  N      -86.397    -198.849     112.458
  C      -86.590    -199.644     111.381
  N      -85.713    -200.470     110.775
  C      -84.524    -200.444     111.401
  C      -84.180    -199.686     112.507
  C      -85.177    -198.852     113.040
  N      -84.965    -198.033     114.128
  N      -82.876    -199.931     112.880
  C      -82.437    -200.821     112.014
  N      -83.396    -201.159     111.095
  O      -80.113    -206.294     108.577
  O      -79.754    -207.804     110.611
  H      -83.902    -201.498     107.406
  H      -79.164    -206.510     108.507
  H      -87.587    -199.615     110.948
  H      -81.443    -201.251     112.017
  H      -84.275    -202.432     109.719
  H      -82.510    -200.440     108.727
  H      -80.565    -201.525     109.691
  H      -81.851    -204.155     108.731
  H      -79.554    -204.465     109.472
  H      -85.760    -197.614     114.579
  H      -84.048    -198.048     114.563
  H      -79.872    -203.570     110.982
  P      -79.613    -200.921     107.236
  C      -80.655    -199.313     105.486
  O      -80.726    -199.849     106.802
  O      -78.992    -201.393     105.838
  O      -78.564    -200.441     108.178
  H      -78.186    -200.876     105.642
  H      -81.455    -198.617     105.341
  H      -80.738    -200.106     104.773
  H      -79.719    -198.812     105.355

 6  7  8  9  10  11  12  13  14  15  25  28  32  33  34  35 0
 6-311+G(2d,p)
 ****
 36  39  40 0
 6-311+G(2d,p)
 ****
 1  2  3  4  5  16  17  18  19  20  21  22  23  24 0
 3-21G
 ****
 26  27  29  30  31  37  38  41  42  43  44  45  46  47  48 0
 3-21G
 ****


