%nproc=1
%NoSave
%Mem=1900MB
#P OB98/GEN NMR

erre ene a

0 1
  C     -365.929     425.078    -678.301
  O     -365.585     426.439    -678.122
  H     -366.827     424.864    -677.712
  H     -365.119     424.431    -677.951
  H     -366.142     424.876    -679.354
  P     -364.267     426.949    -678.889
  C     -365.651     426.997    -681.078
  O     -364.473     426.556    -680.434
  C     -365.345     428.169    -682.015
  O     -364.864     429.306    -681.266
  C     -364.288     427.865    -683.070
  O     -364.858     427.194    -684.181
  C     -363.798     429.264    -683.413
  O     -364.689     429.926    -684.341
  C     -363.821     429.958    -682.044
  N     -359.176     431.912    -681.745
  C     -360.238     432.258    -682.552
  N     -360.005     433.236    -683.465
  N     -361.407     431.692    -682.497
  C     -361.479     430.707    -681.569
  C     -360.505     430.285    -680.696
  C     -359.219     430.948    -680.753
  O     -358.259     430.731    -680.015
  N     -360.965     429.278    -679.887
  C     -362.205     429.063    -680.303
  N     -362.553     429.896    -681.332
  O     -363.131     425.927    -678.400
  O     -363.881     428.365    -678.627
  H     -364.770     429.383    -685.145
  H     -362.272     426.391    -678.391
  H     -358.299     432.399    -681.826
  H     -362.866     428.317    -679.893
  H     -364.086     431.018    -682.123
  H     -362.816     429.244    -683.892
  H     -359.071     433.462    -683.773
  H     -363.462     427.285    -682.640
  H     -360.773     433.482    -684.079
  H     -366.285     428.473    -682.487
  H     -366.374     427.334    -680.319
  H     -366.092     426.175    -681.650
  P     -363.914     426.191    -685.011
  C     -364.156     424.141    -683.421
  O     -363.307     425.155    -683.944
  O     -362.662     427.106    -685.399
  O     -364.558     425.579    -686.218
  H     -362.150     426.690    -686.118
  H     -363.607     423.538    -682.729
  H     -364.515     423.528    -684.221
  H     -364.985     424.594    -682.919

 6  7  8  9  10  11  12  13  14  15  26  29  33  34 0
 6-311+G(2d,p)
 ****
 36  38  39  40  41 0
 6-311+G(2d,p)
 ****
 1  2  3  4  5  16  17  18  19  20  21  22  23  24  25 0
 3-21G
 ****
 27  28  30  31  32  35  37  42  43  44  45  46  47 0
 3-21G
 ****
 48  49 0
 3-21G
 ****


