%nproc=1
%NoSave
%Mem=1900MB
#P OB98/GEN NMR

erre ene a

0 1
  C      102.141      41.907     -55.911
  O      101.126      42.582     -55.198
  H      103.092      42.415     -55.729
  H      101.932      41.935     -56.983
  H      102.228      40.871     -55.576
  P       99.648      41.964     -55.185
  C      100.111      40.449     -53.153
  O       99.761      40.505     -54.530
  C       99.435      39.250     -52.493
  O       99.919      39.081     -51.143
  C       97.920      39.383     -52.377
  O       97.298      39.161     -53.627
  C       97.631      38.336     -51.313
  O       97.623      37.015     -51.876
  C       98.841      38.515     -50.366
  N       98.533      39.348     -49.202
  C       97.825      38.732     -48.177
  O       97.461      37.559     -48.218
  N       97.505      39.531     -47.110
  C       97.741      40.872     -47.021
  O       97.247      41.588     -46.155
  C       98.557      41.450     -48.098
  C       98.897      40.679     -49.132
  O       98.910      42.019     -56.480
  O       98.899      42.807     -54.047
  H       98.340      43.489     -54.467
  H       97.666      36.394     -51.124
  H       96.950      39.107     -46.382
  H       98.821      42.498     -48.031
  H       99.473      41.092     -49.952
  H       99.190      37.540     -50.002
  H       96.661      38.486     -50.836
  H       97.659      40.371     -51.982
  H       99.703      38.351     -53.063
  H       99.770      41.371     -52.669
  H      101.199      40.381     -53.062
  P       95.712      39.275     -53.793
  C       95.699      41.814     -53.449
  O       95.217      40.563     -52.978
  O       94.953      38.024     -53.494
  O       95.506      39.715     -55.320
  H       94.886      39.095     -55.750
  H       95.309      42.600     -52.836
  H       95.383      41.960     -54.461
  H       96.768      41.824     -53.404

 6  7  8  9  10  11  12  13  14  15  16  27  31  32  33  34  35 0
 6-311+G(2d,p)
 ****
 36  37 0
 6-311+G(2d,p)
 ****
 1  2  3  4  5  17  18  19  20  21  22  23  24  25 0
 3-21G
 ****
 26  28  29  30  38  39  40  41  42  43  44  45 0
 3-21G
 ****


