%nproc=1
%NoSave
%Mem=1900MB
#P OB98/GEN NMR

erre ene a

0 1
  C        1.827      -1.851      -0.371
  O        1.942      -0.998       0.746
  P        2.953       0.243       0.747
  C        4.629      -1.139       2.132
  O        4.428      -0.364       0.956
  C        6.128      -1.352       2.379
  O        6.650      -2.237       1.339
  C        6.934      -0.038       2.332
  O        7.761       0.187       3.473
  C        7.666      -0.142       1.004
  O        8.813       0.681       0.914
  C        7.888      -1.654       0.889
  N        8.238      -2.067      -0.468
  C        9.575      -2.357      -0.717
  O       10.468      -2.298       0.123
  N        9.889      -2.668      -2.011
  C        9.044      -2.606      -3.077
  O        9.415      -2.802      -4.226
  C        7.651      -2.256      -2.758
  C        7.309      -2.028      -1.488
  O        2.607       1.350       1.684
  O        2.991       0.680      -0.793
  H        9.097       0.698      -0.019
  H        3.294      -0.010      -1.407
  H       10.855      -2.880      -2.206
  H        6.960      -2.189      -3.585
  H        6.290      -1.768      -1.222
  H        8.673      -1.995       1.566
  H        6.977       0.185       0.216
  H        6.268       0.832       2.312
  H        6.239      -1.849       3.346
  H        4.147      -2.110       2.001
  H        4.153      -0.647       2.987
  P        8.185       1.626       4.031
  C       10.705       1.529       3.401
  O        9.446       2.136       3.191
  O        8.336       1.713       5.513
  O        7.004       2.583       3.528
  H        6.899       3.327       4.150
  H       11.487       2.261       3.180
  H       10.816       0.684       2.717
  H       10.820       1.186       4.432
  H        1.102      -2.611      -0.167
  H        2.774      -2.307      -0.571
  H        1.518      -1.283      -1.223

 3  4  5  6  7  8  9  10  11  12  13  23  28  29  30  31  32 0
 6-311+G(2d,p)
 ****
 33  34 0
 6-311+G(2d,p)
 ****
 1  2  14  15  16  17  18  19  20  21  22  24  25  26  27 0
 3-21G
 ****
 35  36  37  38  39  40  41  42  43  44  45 0
 3-21G
 ****


