%nproc=1
%NoSave
%Mem=1900MB
#P OB98/GEN NMR

erre ene a

0 1
  C      284.163      65.526     381.129
  O      285.498      65.922     381.379
  H      284.178      64.606     380.538
  H      283.631      66.297     380.562
  H      283.642      65.328     382.070
  P      285.752      67.295     382.163
  C      286.477      66.271     384.431
  O      286.877      66.986     383.263
  C      287.242      66.770     385.654
  O      288.657      66.542     385.491
  C      287.092      68.266     385.918
  O      285.820      68.550     386.471
  C      288.274      68.508     386.841
  O      287.986      68.073     388.178
  C      289.354      67.600     386.193
  N      290.251      68.318     385.291
  C      291.272      69.059     385.898
  O      291.363      69.097     387.124
  N      292.145      69.755     385.092
  C      292.039      69.682     383.803
  N      292.936      70.388     383.065
  C      291.000      68.880     383.123
  C      290.143      68.241     383.916
  O      284.536      67.984     382.703
  O      286.525      68.211     381.100
  H      287.694      67.141     388.105
  H      285.896      68.776     380.614
  H      290.957      68.839     382.040
  H      289.350      67.629     383.497
  H      289.967      67.121     386.967
  H      288.546      69.564     386.898
  H      287.250      68.833     384.991
  H      286.911      66.184     386.523
  H      293.644      70.905     383.575
  H      286.704      65.213     384.251
  H      293.053      70.277     382.069
  H      285.399      66.370     384.593
  P      285.059      69.926     386.160
  C      282.969      69.031     384.953
  O      283.492      69.565     386.162
  O      285.534      70.660     384.954
  O      285.216      70.759     387.518
  H      286.130      71.143     387.584
  H      281.925      68.831     385.074
  H      283.481      68.122     384.714
  H      283.108      69.738     384.162

 6  7  8  9  10  11  12  13  14  15  16  26  30  31  32  33  35 0
 6-311+G(2d,p)
 ****
 37  38 0
 6-311+G(2d,p)
 ****
 1  2  3  4  5  17  18  19  20  21  22  23  24  25 0
 3-21G
 ****
 27  28  29  34  36  39  40  41  42  43  44  45  46 0
 3-21G
 ****


