%nproc=1
%NoSave
%Mem=1900MB
#P OB98/GEN NMR

erre ene a

0 1
  C      452.131     809.432     442.899
  O      453.189     809.764     443.805
  P      453.609     808.717     444.944
  C      453.150     810.255     446.957
  O      454.118     809.524     446.234
  C      453.793     811.000     448.145
  O      454.079     810.066     449.221
  C      455.111     811.695     447.771
  O      455.152     813.066     448.158
  C      456.176     810.804     448.379
  O      457.394     811.478     448.622
  C      455.458     810.207     449.591
  N      456.056     808.940     450.017
  C      457.308     809.001     450.606
  O      457.955     810.052     450.714
  N      457.844     807.805     451.023
  C      457.291     806.579     450.835
  O      457.823     805.532     451.184
  C      455.981     806.562     450.153
  C      455.437     807.724     449.772
  O      454.490     807.599     444.496
  O      452.190     808.148     445.446
  H      458.098     810.803     448.802
  H      452.294     807.193     445.619
  H      458.748     807.835     451.479
  H      455.522     805.601     449.952
  H      454.492     807.744     449.257
  H      455.505     810.891     450.450
  H      456.393     809.988     447.672
  H      455.244     811.732     446.676
  H      453.065     811.729     448.504
  H      452.392     809.571     447.344
  H      452.630     810.935     446.280
  P      454.528     814.281     447.316
  C      456.774     815.238     446.448
  O      455.614     815.452     447.234
  O      453.163     814.713     447.736
  O      454.486     813.697     445.824
  H      453.659     813.971     445.387
  H      457.547     815.929     446.784
  H      456.545     815.441     445.398
  H      457.144     814.222     446.553
  H      451.985     810.238     442.211
  H      451.229     809.265     443.450
  H      452.389     808.545     442.360

 3  4  5  6  7  8  9  10  11  12  13  23  28  29  30  31  32 0
 6-311+G(2d,p)
 ****
 33  34 0
 6-311+G(2d,p)
 ****
 1  2  14  15  16  17  18  19  20  21  22  24  25  26  27 0
 3-21G
 ****
 35  36  37  38  39  40  41  42  43  44  45 0
 3-21G
 ****


