%nproc=1
%NoSave
%Mem=1900MB
#P OB98/GEN NMR

erre ene a

0 1
  C      229.532    -815.457     731.925
  O      229.795    -816.495     732.834
  P      228.887    -816.654     734.160
  C      230.565    -818.206     735.368
  O      229.865    -816.954     735.393
  C      231.452    -818.351     736.602
  O      232.420    -817.273     736.656
  C      230.694    -818.283     737.915
  O      229.956    -819.456     738.167
  C      231.848    -818.030     738.886
  O      232.533    -819.255     739.211
  C      232.760    -817.106     738.059
  N      232.663    -815.710     738.467
  C      233.411    -815.346     739.588
  O      234.045    -816.203     740.229
  N      233.431    -814.030     739.976
  C      232.664    -813.165     739.351
  N      232.744    -811.863     739.733
  C      231.733    -813.552     738.273
  C      231.793    -814.822     737.858
  O      227.724    -817.587     734.038
  O      228.386    -815.154     734.466
  H      227.423    -815.178     734.596
  H      232.580    -819.780     738.366
  H      231.067    -812.816     737.850
  H      231.181    -815.192     737.074
  H      233.818    -817.432     738.146
  H      231.507    -817.591     739.834
  H      230.029    -817.413     737.917
  H      231.995    -819.304     736.518
  H      233.401    -811.632     740.479
  H      231.169    -818.236     734.463
  H      232.470    -811.099     739.130
  H      229.828    -819.020     735.316
  P      228.358    -819.321     738.122
  C      228.154    -821.069     740.026
  O      227.795    -819.783     739.549
  O      227.917    -820.511     737.141
  O      227.860    -817.994     737.631
  H      227.156    -820.217     736.582
  H      228.015    -821.092     741.113
  H      229.217    -821.260     739.829
  H      227.549    -821.834     739.571
  H      230.228    -815.508     731.114
  H      229.631    -814.514     732.422
  H      228.536    -815.558     731.547

 3  4  5  6  7  8  9  10  11  12  13  24  27  28  29  30  32 0
 6-311+G(2d,p)
 ****
 34  35 0
 6-311+G(2d,p)
 ****
 1  2  14  15  16  17  18  19  20  21  22  23  25  26 0
 3-21G
 ****
 31  33  36  37  38  39  40  41  42  43  44  45  46 0
 3-21G
 ****


