%nproc=1
%NoSave
%Mem=1900MB
#P OB98/GEN NMR

erre ene a

0 1
  C      231.789     144.770    -133.079
  O      231.388     143.504    -132.594
  H      230.931     145.253    -133.551
  H      232.587     144.670    -133.820
  H      232.131     145.398    -132.249
  P      232.528     142.492    -132.088
  C      231.862     141.776    -129.695
  O      232.606     142.696    -130.494
  C      231.863     142.203    -128.224
  O      231.065     143.393    -128.052
  C      231.250     141.173    -127.288
  O      232.020     140.000    -127.136
  C      230.905     142.010    -126.062
  O      231.989     142.156    -125.150
  C      230.570     143.383    -126.698
  N      229.142     143.679    -126.637
  C      228.769     144.954    -127.047
  O      229.573     145.809    -127.424
  N      227.434     145.240    -126.976
  C      226.464     144.406    -126.493
  O      225.286     144.735    -126.414
  C      226.922     143.080    -126.048
  C      228.221     142.778    -126.140
  O      233.854     142.607    -132.778
  O      231.850     141.050    -132.236
  H      231.707     142.798    -124.469
  H      232.527     140.333    -132.208
  H      227.143     146.155    -127.279
  H      226.182     142.392    -125.661
  H      228.585     141.806    -125.817
  H      231.100     144.184    -126.168
  H      230.072     141.577    -125.502
  H      230.294     140.852    -127.717
  H      232.893     142.439    -127.933
  H      232.342     140.796    -129.785
  H      230.837     141.705    -130.074
  P      231.392     138.529    -127.162
  C      233.274     137.633    -128.714
  O      231.876     137.799    -128.512
  O      229.959     138.404    -126.752
  O      232.283     137.787    -126.038
  H      231.708     137.139    -125.591
  H      233.443     137.136    -129.646
  H      233.682     137.046    -127.918
  H      233.748     138.592    -128.730

 6  7  8  9  10  11  12  13  14  15  16  26  31  32  33  34  35 0
 6-311+G(2d,p)
 ****
 36  37 0
 6-311+G(2d,p)
 ****
 1  2  3  4  5  17  18  19  20  21  22  23  24  25 0
 3-21G
 ****
 27  28  29  30  38  39  40  41  42  43  44  45 0
 3-21G
 ****


