%nproc=1
%NoSave
%Mem=1900MB
#P OB98/GEN NMR

erre ene a

0 1
  C     -103.890     213.989      90.492
  O     -102.565     214.177      90.053
  H     -104.332     214.970      90.694
  H     -103.909     213.410      91.418
  H     -104.485     213.491      89.723
  P     -101.656     212.895      89.723
  C     -100.330     212.683      91.910
  O     -100.295     213.114      90.556
  C      -99.146     213.250      92.696
  O      -97.912     212.654      92.210
  C      -99.000     214.776      92.582
  O      -98.788     215.337      93.880
  C      -97.746     214.951      91.738
  O      -97.106     216.207      91.946
  C      -96.943     213.716      92.155
  N      -95.855     213.431      91.228
  C      -94.617     213.130      91.801
  O      -94.490     213.108      93.029
  N      -93.541     212.913      90.979
  C      -93.679     213.036      89.696
  N      -92.567     212.839      88.939
  C      -94.962     213.380      89.050
  C      -95.999     213.558      89.865
  O     -101.470     212.621      88.268
  O     -102.355     211.685      90.506
  H      -97.699     216.917      91.613
  H     -102.087     210.835      90.084
  H      -95.023     213.476      87.975
  H      -96.981     213.815      89.483
  H      -96.520     213.845      93.161
  H      -98.014     214.880      90.676
  H      -99.863     215.256      92.121
  H      -99.245     212.937      93.744
  H      -91.707     212.609      89.425
  H     -100.314     211.587      91.929
  H      -92.546     212.928      87.936
  H     -101.260     213.039      92.363
  P     -100.100     215.573      94.772
  C     -100.400     217.851      93.568
  O     -100.403     217.148      94.802
  O      -99.599     215.243      96.256
  O     -101.251     214.706      94.378
  H     -100.002     214.413      96.566
  H     -100.616     218.884      93.745
  H     -101.144     217.437      92.920
  H      -99.438     217.762      93.109

 6  7  8  9  10  11  12  13  14  15  16  26  30  31  32  33  35 0
 6-311+G(2d,p)
 ****
 37  38 0
 6-311+G(2d,p)
 ****
 1  2  3  4  5  17  18  19  20  21  22  23  24  25 0
 3-21G
 ****
 27  28  29  34  36  39  40  41  42  43  44  45  46 0
 3-21G
 ****


