%nproc=1
%NoSave
%Mem=1900MB
#P OB98/GEN NMR

erre ene a

0 1
  C      371.480      40.105    -574.658
  O      372.291      39.037    -574.197
  P      371.646      37.637    -573.750
  C      370.874      38.604    -571.494
  O      371.701      37.653    -572.148
  C      370.957      38.432    -569.980
  O      370.548      37.081    -569.650
  C      372.349      38.582    -569.368
  O      372.733      39.919    -569.097
  C      372.169      37.837    -568.053
  O      371.478      38.669    -567.111
  C      371.274      36.659    -568.476
  N      375.061      33.602    -566.900
  C      374.503      34.708    -566.353
  N      373.511      35.483    -566.847
  C      373.060      34.980    -568.005
  C      373.516      33.859    -568.685
  C      374.571      33.153    -568.079
  N      375.120      32.010    -568.620
  N      372.818      33.675    -569.857
  C      371.938      34.657    -569.882
  N      372.042      35.465    -568.783
  O      372.237      36.444    -574.416
  O      370.083      37.811    -574.056
  H      372.062      39.431    -566.916
  H      369.649      36.931    -574.068
  H      374.917      35.022    -565.399
  H      371.217      34.820    -570.669
  H      370.539      36.402    -567.712
  H      373.115      37.548    -567.594
  H      373.113      38.068    -569.973
  H      370.250      39.128    -569.512
  H      369.839      38.442    -571.818
  H      375.780      31.496    -568.057
  H      374.649      31.586    -569.416
  H      371.173      39.610    -571.794
  P      374.184      40.394    -569.615
  C      375.537      39.257    -567.682
  O      375.113      40.448    -568.307
  O      374.174      41.629    -570.451
  O      374.721      39.102    -570.391
  H      374.903      38.327    -569.839
  H      376.287      39.504    -566.922
  H      375.988      38.575    -568.408
  H      374.690      38.760    -567.195
  H      372.099      40.942    -574.904
  H      370.789      40.385    -573.890
  H      370.940      39.793    -575.527

 3  4  5  6  7  8  9  10  11  12  22  25  29  30  31  32 0
 6-311+G(2d,p)
 ****
 33  36  37 0
 6-311+G(2d,p)
 ****
 1  2  13  14  15  16  17  18  19  20  21  23  24  26 0
 3-21G
 ****
 27  28  34  35  38  39  40  41  42  43  44  45  46  47  48 0
 3-21G
 ****


