%nproc=1
%NoSave
%Mem=1900MB
#P OB98/GEN NMR

erre ene a

0 1
  C     -964.694    -577.176     -16.005
  O     -963.791    -577.574     -14.989
  H     -965.183    -578.067     -16.406
  H     -964.141    -576.690     -16.814
  H     -965.456    -576.502     -15.613
  P     -963.259    -576.432     -13.998
  C     -964.363    -577.275     -11.803
  O     -963.164    -577.104     -12.539
  C     -964.260    -578.496     -10.889
  O     -964.422    -579.701     -11.701
  C     -962.921    -578.613     -10.147
  O     -963.160    -579.148      -8.832
  C     -962.174    -579.664     -10.955
  O     -961.162    -580.318     -10.195
  C     -963.334    -580.576     -11.360
  N     -962.013    -585.288     -12.482
  C     -962.522    -584.754     -11.319
  N     -962.641    -585.580     -10.255
  N     -962.874    -583.500     -11.191
  C     -962.721    -582.783     -12.330
  C     -962.227    -583.191     -13.546
  C     -961.820    -584.578     -13.664
  O     -961.344    -585.108     -14.665
  N     -962.171    -582.149     -14.430
  C     -962.611    -581.103     -13.750
  N     -962.958    -581.437     -12.469
  O     -964.522    -575.454     -13.877
  O     -962.035    -575.712     -14.452
  H     -960.548    -579.639      -9.849
  H     -964.435    -574.722     -14.520
  H     -961.738    -586.256     -12.519
  H     -962.682    -580.093     -14.121
  H     -963.659    -581.235     -10.543
  H     -961.709    -579.200     -11.829
  H     -962.418    -586.563     -10.285
  H     -962.371    -577.667     -10.064
  H     -963.050    -585.212      -9.409
  H     -965.100    -578.476     -10.179
  H     -965.197    -577.423     -12.500
  H     -964.559    -576.373     -11.213
  P     -961.939    -579.184      -7.799
  C     -963.072    -577.586      -6.094
  O     -962.494    -578.863      -6.336
  O     -961.096    -577.880      -8.174
  O     -961.103    -580.417      -7.910
  H     -960.147    -578.046      -8.048
  H     -963.393    -577.527      -5.075
  H     -963.912    -577.446      -6.741
  H     -962.345    -576.824      -6.284

 6  7  8  9  10  11  12  13  14  15  26  29  33  34 0
 6-311+G(2d,p)
 ****
 36  38  39  40  41 0
 6-311+G(2d,p)
 ****
 1  2  3  4  5  16  17  18  19  20  21  22  23  24  25 0
 3-21G
 ****
 27  28  30  31  32  35  37  42  43  44  45  46  47 0
 3-21G
 ****
 48  49 0
 3-21G
 ****


