%nproc=1
%NoSave
%Mem=1900MB
#P OB98/GEN NMR

erre ene a

0 1
  C      -22.625     -80.042      79.518
  O      -23.064     -80.228      80.845
  H      -22.735     -80.984      78.975
  H      -21.569     -79.761      79.512
  H      -23.216     -79.275      79.009
  P      -23.277     -78.946      81.783
  C      -21.779     -77.649      83.436
  O      -21.826     -78.576      82.361
  C      -20.441     -77.764      84.171
  O      -20.305     -79.134      84.659
  C      -19.221     -77.463      83.276
  O      -18.212     -76.838      84.078
  C      -18.784     -78.859      82.883
  O      -17.451     -78.888      82.441
  C      -19.041     -79.623      84.180
  N      -19.048     -81.066      83.959
  C      -17.826     -81.665      83.678
  O      -16.765     -81.047      83.598
  N      -17.862     -83.007      83.413
  C      -18.988     -83.766      83.293
  O      -18.968     -84.946      82.975
  C      -20.259     -83.066      83.549
  C      -20.230     -81.772      83.871
  O      -24.348     -79.061      82.815
  O      -23.543     -77.747      80.757
  H      -17.153     -79.812      82.341
  H      -24.002     -77.012      81.206
  H      -16.982     -83.457      83.218
  H      -21.172     -83.636      83.448
  H      -21.147     -81.221      84.048
  H      -18.282     -79.379      84.935
  H      -19.415     -79.238      82.072
  H      -19.462     -76.831      82.419
  H      -20.457     -77.111      85.050
  H      -22.601     -77.878      84.122
  H      -21.909     -76.634      83.049
  P      -17.860     -75.280      83.932
  C      -16.519     -73.702      82.412
  O      -16.757     -75.056      82.783
  O      -17.534     -74.601      85.224
  O      -19.184     -74.636      83.299
  H      -19.404     -73.817      83.782
  H      -15.773     -73.668      81.646
  H      -16.179     -73.153      83.265
  H      -17.426     -73.268      82.046

 6  7  8  9  10  11  12  13  14  15  16  26  31  32  33  34  35 0
 6-311+G(2d,p)
 ****
 36  37 0
 6-311+G(2d,p)
 ****
 1  2  3  4  5  17  18  19  20  21  22  23  24  25 0
 3-21G
 ****
 27  28  29  30  38  39  40  41  42  43  44  45 0
 3-21G
 ****


