%nproc=1
%NoSave
%Mem=1900MB
#P OB98/GEN NMR

erre ene a

0 1
  C      156.243     189.971      13.448
  O      155.458     189.840      14.616
  H      155.643     189.669      12.586
  H      157.122     189.324      13.512
  H      156.554     191.010      13.315
  P      156.160     190.253      15.997
  C      155.909     192.846      16.095
  O      155.409     191.579      16.496
  C      155.245     193.964      16.907
  O      153.854     194.084      16.486
  C      155.227     193.706      18.422
  O      155.238     194.980      19.087
  C      153.871     193.046      18.608
  O      153.504     193.015      19.967
  C      153.040     193.913      17.666
  N      147.990     194.695      17.527
  C      149.015     195.504      17.869
  N      150.335     195.229      17.869
  C      150.560     193.975      17.442
  C      149.618     193.038      17.051
  C      148.272     193.439      17.109
  N      147.225     192.614      16.770
  N      150.231     191.855      16.679
  C      151.520     192.078      16.843
  N      151.764     193.340      17.309
  O      157.598     190.779      15.536
  O      156.262     189.168      17.016
  H      154.240     192.673      20.519
  H      158.254     190.060      15.606
  H      148.738     196.505      18.188
  H      152.311     191.364      16.650
  H      152.851     194.907      18.087
  H      153.893     192.007      18.264
  H      156.072     193.106      18.771
  H      155.731     194.916      16.669
  H      155.694     192.982      15.030
  H      156.992     192.877      16.250
  H      146.287     192.973      16.854
  H      147.419     191.670      16.473
  P      155.904     195.096      20.546
  C      157.260     197.246      19.931
  O      156.325     196.623      20.798
  O      157.327     194.393      20.319
  O      155.156     194.430      21.654
  H      157.637     194.006      21.159
  H      157.421     198.256      20.247
  H      156.878     197.241      18.932
  H      158.186     196.711      19.961

 6  7  8  9  10  11  12  13  14  15  25  28  32  33  34  35 0
 6-311+G(2d,p)
 ****
 36  37  40 0
 6-311+G(2d,p)
 ****
 1  2  3  4  5  16  17  18  19  20  21  22  23  24 0
 3-21G
 ****
 26  27  29  30  31  38  39 41  42  43  44  45  46  47  48 0
 3-21G
 ****


