%nproc=1
%NoSave
%Mem=1900MB
#P OB98/GEN NMR

erre ene a

0 1
  C      251.509    -186.907     131.274
  O      252.099    -186.863     132.562
  P      252.072    -188.207     133.441
  C      249.989    -187.344     134.730
  O      250.568    -188.393     133.967
  C      248.828    -187.863     135.580
  O      247.716    -188.199     134.702
  C      249.154    -189.117     136.408
  O      248.415    -189.008     137.630
  C      248.605    -190.229     135.531
  O      248.421    -191.461     136.204
  C      247.338    -189.560     135.006
  N      244.389    -193.392     133.342
  C      244.678    -192.953     134.591
  N      245.466    -191.921     134.955
  C      245.972    -191.307     133.872
  C      245.786    -191.652     132.543
  C      244.947    -192.750     132.292
  N      244.661    -193.200     131.018
  N      246.489    -190.806     131.712
  C      247.098    -189.966     132.525
  N      246.799    -190.217     133.838
  O      252.872    -187.791     134.762
  O      252.670    -189.408     132.777
  H      247.938    -192.089     135.629
  H      253.438    -188.521     135.076
  H      244.215    -193.507     135.403
  H      247.768    -189.175     132.220
  H      246.548    -189.526     135.765
  H      249.309    -190.415     134.711
  H      250.218    -189.219     136.641
  H      248.491    -187.052     136.237
  H      249.601    -186.575     134.054
  H      244.218    -194.106     130.952
  H      245.238    -192.849     130.265
  H      250.759    -186.882     135.357
  P      249.213    -189.013     139.023
  C      249.230    -191.583     139.031
  O      250.014    -190.405     139.003
  O      248.029    -189.338     140.049
  O      249.988    -187.781     139.333
  H      247.512    -190.114     139.768
  H      249.890    -192.447     138.915
  H      248.507    -191.578     138.210
  H      248.710    -191.662     139.989
  H      251.600    -185.949     130.807
  H      250.474    -187.163     131.364
  H      252.008    -187.643     130.678

 3  4  5  6  7  8  9  10  11  12  22  25  29  30  31  32 0
 6-311+G(2d,p)
 ****
 33  36  37 0
 6-311+G(2d,p)
 ****
 1  2  13  14  15  16  17  18  19  20  21  23  24  26 0
 3-21G
 ****
 27  28  34  35  38  39  40  41  42  43  44  45  46  47  48 0
 3-21G
 ****


