%nproc=1
%NoSave
%Mem=1900MB
#P OB98/GEN NMR

erre ene a

0 1
  C     -124.035     -58.958    -155.229
  O     -123.593     -60.138    -155.911
  P     -124.428     -60.627    -157.189
  C     -123.744     -58.857    -158.971
  O     -123.633     -60.198    -158.514
  C     -123.675     -58.804    -160.500
  O     -123.991     -57.490    -161.004
  C     -122.301     -59.132    -161.062
  O     -122.089     -60.534    -161.139
  C     -122.402     -58.537    -162.458
  O     -123.125     -59.436    -163.321
  C     -123.223     -57.266    -162.209
  N     -120.039     -53.983    -164.514
  C     -120.653     -55.103    -164.954
  N     -121.471     -55.935    -164.276
  C     -121.649     -55.503    -163.017
  C     -121.089     -54.382    -162.428
  C     -120.246     -53.599    -163.232
  N     -119.625     -52.458    -162.779
  N     -121.492     -54.267    -161.113
  C     -122.295     -55.293    -160.919
  N     -122.414     -56.074    -162.037
  O     -125.695     -59.648    -157.188
  O     -124.844     -62.059    -157.129
  H     -123.067     -59.073    -164.224
  H     -126.481     -60.124    -157.514
  H     -120.462     -55.368    -165.990
  H     -122.811     -55.510    -159.993
  H     -123.932     -57.063    -163.020
  H     -121.424     -58.374    -162.918
  H     -121.511     -58.625    -160.492
  H     -124.414     -59.513    -160.897
  H     -122.947     -58.247    -158.537
  H     -119.057     -51.933    -163.422
  H     -119.794     -52.155    -161.830
  H     -124.686     -58.435    -158.607
  P     -120.735     -61.109    -160.499
  C     -121.164     -60.671    -157.975
  O     -121.128     -61.611    -159.030
  O     -119.870     -59.786    -160.240
  O     -120.014     -62.090    -161.359
  H     -118.918     -59.990    -160.311
  H     -121.730     -61.099    -157.143
  H     -121.649     -59.745    -158.288
  H     -120.146     -60.458    -157.637
  H     -123.384     -58.758    -154.404
  H     -125.032     -59.106    -154.869
  H     -124.019     -58.129    -155.905

 3  4  5  6  7  8  9  10  11  12  22  25  29  30  31  32 0
 6-311+G(2d,p)
 ****
 33  36  37 0
 6-311+G(2d,p)
 ****
 1  2  13  14  15  16  17  18  19  20  21  23  24  26 0
 3-21G
 ****
 27  28  34  35  38  39  40  41  42  43  44  45  46  47  48 0
 3-21G
 ****


