%nproc=1
%NoSave
%Mem=1900MB
#P OB98/GEN NMR

erre ene a

0 1
  C      -35.529      64.338     -65.391
  O      -36.012      64.560     -66.702
  H      -34.498      64.697     -65.330
  H      -35.544      63.268     -65.166
  H      -36.136      64.881     -64.661
  P      -37.578      64.317     -66.934
  C      -39.219      62.298     -66.605
  O      -37.883      62.780     -66.569
  C      -39.329      61.001     -65.808
  O      -39.359      61.271     -64.393
  C      -40.612      60.225     -66.053
  O      -40.635      59.596     -67.315
  C      -40.577      59.246     -64.887
  O      -39.780      58.094     -65.187
  C      -39.921      60.092     -63.769
  N      -40.865      60.418     -62.716
  C      -41.186      59.364     -61.850
  O      -40.660      58.260     -62.000
  N      -42.117      59.581     -60.869
  C      -42.698      60.735     -60.775
  N      -43.635      60.874     -59.799
  C      -42.391      61.872     -61.667
  C      -41.474      61.646     -62.608
  O      -37.699      64.345     -68.528
  O      -38.471      65.287     -66.236
  H      -39.587      57.663     -64.329
  H      -37.049      63.783     -68.980
  H      -42.893      62.819     -61.539
  H      -41.187      62.424     -63.306
  H      -39.081      59.547     -63.318
  H      -41.577      58.884     -64.635
  H      -41.482      60.882     -65.920
  H      -38.445      60.389     -66.028
  H      -43.855      60.054     -59.247
  H      -39.542      62.138     -67.638
  H      -44.207      61.698     -59.683
  H      -39.863      63.069     -66.171
  P      -42.010      59.123     -67.985
  C      -43.668      57.177     -67.664
  O      -42.489      57.814     -67.183
  O      -41.974      58.955     -69.467
  O      -43.057      60.224     -67.479
  H      -43.150      60.286     -66.512
  H      -43.886      56.324     -67.055
  H      -43.517      56.864     -68.676
  H      -44.487      57.864     -67.622

 6  7  8  9  10  11  12  13  14  15  16  26  30  31  32  33  35 0
 6-311+G(2d,p)
 ****
 37  38 0
 6-311+G(2d,p)
 ****
 1  2  3  4  5  17  18  19  20  21  22  23  24  25 0
 3-21G
 ****
 27  28  29  34  36  39  40  41  42  43  44  45  46 0
 3-21G
 ****


