%nproc=1
%NoSave
%Mem=1900MB
#P OB98/GEN NMR

erre ene a

0 1
  C       61.339     100.678    -129.293
  O       62.402     101.366    -129.928
  H       61.031      99.843    -129.928
  H       60.490     101.353    -129.159
  H       61.662     100.287    -128.323
  P       63.153     102.480    -129.056
  C       64.935     100.847    -128.036
  O       63.843     101.728    -127.810
  C       66.255     101.588    -127.838
  O       66.394     102.039    -126.475
  C       67.492     100.733    -128.061
  O       67.715     100.444    -129.423
  C       68.564     101.622    -127.444
  O       69.034     102.607    -128.372
  C       67.803     102.291    -126.273
  N       68.272     101.815    -124.984
  C       68.661     102.817    -124.081
  O       68.573     104.002    -124.398
  N       69.171     102.442    -122.867
  C       69.311     101.183    -122.585
  N       69.854     100.879    -121.376
  C       68.916     100.096    -123.509
  C       68.409     100.482    -124.680
  O       61.934     103.266    -128.378
  O       64.090     103.351    -129.822
  H       68.247     103.121    -128.652
  H       61.276     102.684    -127.963
  H       69.038      99.063    -123.221
  H       68.094      99.752    -125.419
  H       67.933     103.383    -126.305
  H       69.435     101.043    -127.128
  H       67.427      99.813    -127.464
  H       66.255     102.468    -128.498
  H       70.163     101.652    -120.795
  H       64.884     100.422    -129.042
  H       70.081      99.940    -121.082
  H       64.850     100.022    -127.322
  P       68.722      99.284    -129.873
  C       66.791      97.715    -129.196
  O       68.199      97.925    -129.185
  O       70.167      99.568    -129.648
  O       68.337      99.045    -131.411
  H       67.413      98.778    -131.565
  H       66.565      96.787    -128.714
  H       66.443      97.686    -130.207
  H       66.307      98.514    -128.675

 6  7  8  9  10  11  12  13  14  15  16  26  30  31  32  33  35 0
 6-311+G(2d,p)
 ****
 37  38 0
 6-311+G(2d,p)
 ****
 1  2  3  4  5  17  18  19  20  21  22  23  24  25 0
 3-21G
 ****
 27  28  29  34  36  39  40  41  42  43  44  45  46 0
 3-21G
 ****


