%nproc=1
%NoSave
%Mem=1900MB
#P OB98/GEN NMR

erre ene a

0 1
  C      568.116     298.138     590.171
  O      567.192     297.850     591.206
  P      565.631     297.922     590.852
  C      565.485     300.289     591.948
  O      565.240     299.476     590.796
  C      564.481     301.432     592.008
  O      564.540     302.210     590.794
  C      563.031     300.994     592.146
  O      562.744     300.561     593.463
  C      562.303     302.269     591.706
  O      562.302     303.215     592.795
  C      563.223     302.780     590.572
  N      561.556     304.472     586.019
  C      561.928     305.111     587.149
  N      562.344     304.608     588.328
  C      562.348     303.253     588.263
  C      561.984     302.456     587.211
  C      561.576     303.104     586.037
  N      561.188     302.441     584.898
  N      562.093     301.118     587.538
  C      562.553     301.120     588.770
  N      562.741     302.390     589.260
  O      564.915     297.408     592.187
  O      565.227     297.123     589.654
  H      561.979     304.071     592.436
  H      564.104     296.916     591.980
  H      561.896     306.209     587.091
  H      562.763     300.233     589.358
  H      563.328     303.867     590.565
  H      561.275     302.096     591.409
  H      562.808     300.183     591.437
  H      564.768     302.085     592.844
  H      566.506     300.704     591.882
  H      560.766     302.977     584.161
  H      561.056     301.429     584.956
  H      565.424     299.651     592.843
  P      561.706     299.357     593.649
  C      560.216     301.213     594.598
  O      560.269     300.075     593.758
  O      561.989     298.904     595.160
  O      561.813     298.281     592.602
  H      562.003     299.653     595.772
  H      559.210     301.632     594.532
  H      560.939     301.970     594.266
  H      560.421     300.930     595.631
  H      569.113     298.052     590.549
  H      567.954     299.134     589.816
  H      567.978     297.446     589.367

 3  4  5  6  7  8  9  10  11  12  22  25  29  30  31  32 0
 6-311+G(2d,p)
 ****
 33  36  37 0
 6-311+G(2d,p)
 ****
 1  2  13  14  15  16  17  18  19  20  21  23  24  26 0
 3-21G
 ****
 27  28  34  35  38  39  40  41  42  43  44  45  46  47  48 0
 3-21G
 ****


