%nproc=1
%NoSave
%Mem=1900MB
#P OB98/GEN NMR

erre ene a

0 1
  C      179.270    -266.511    -297.933
  O      178.640    -267.769    -298.123
  H      180.313    -266.593    -298.242
  H      179.229    -266.226    -296.878
  H      178.776    -265.752    -298.545
  P      177.098    -267.876    -297.696
  C      177.997    -270.288    -297.372
  O      176.849    -269.452    -297.482
  C      177.618    -271.749    -297.632
  O      177.006    -272.327    -296.461
  C      176.625    -271.938    -298.778
  O      177.313    -271.959    -300.020
  C      176.067    -273.313    -298.440
  O      176.978    -274.340    -298.885
  C      176.014    -273.292    -296.904
  N      171.213    -274.880    -296.013
  C      172.193    -275.399    -296.774
  N      173.429    -274.897    -297.012
  C      173.609    -273.736    -296.346
  C      172.691    -273.090    -295.530
  C      171.442    -273.713    -295.364
  N      170.430    -273.178    -294.587
  N      173.219    -271.916    -295.020
  C      174.461    -271.895    -295.483
  N      174.733    -272.948    -296.317
  O      176.128    -267.166    -298.584
  O      177.160    -267.325    -296.190
  H      176.646    -275.185    -298.518
  H      177.952    -267.671    -295.736
  H      171.972    -276.339    -297.262
  H      175.206    -271.142    -295.217
  H      176.303    -274.267    -296.471
  H      175.107    -273.510    -298.927
  H      175.822    -271.206    -298.745
  H      178.545    -272.305    -297.820
  H      178.438    -270.189    -296.371
  H      169.517    -273.585    -294.675
  H      170.567    -272.241    -294.211
  H      178.734    -269.939    -298.105
  P      176.992    -270.864    -301.153
  C      177.966    -272.695    -302.667
  O      177.885    -271.303    -302.423
  O      177.147    -269.446    -300.707
  O      175.509    -271.210    -301.630
  H      175.127    -270.444    -302.112
  H      178.579    -272.871    -303.526
  H      176.985    -273.084    -302.843
  H      178.396    -273.182    -301.817

 6  7  8  9  10  11  12  13  14  15  25  28  32  33  34  35 0
 6-311+G(2d,p)
 ****
 36  39  40 0
 6-311+G(2d,p)
 ****
 1  2  3  4  5  16  17  18  19  20  21  22  23  24 0
 3-21G
 ****
 26  27  29  30  31  37  38  41  42  43  44  45  46  47 0
 3-21G
 ****
 48 0
 3-21G
 ****


