%nproc=1
%NoSave
%Mem=1900MB
#P OB98/GEN NMR

erre ene a

0 1
  C      -34.230      24.346      39.628
  O      -32.936      24.729      40.045
  H      -34.871      24.270      40.511
  H      -34.196      23.370      39.138
  H      -34.656      25.089      38.950
  P      -31.838      25.074      38.930
  C      -31.608      22.530      38.584
  O      -31.742      23.802      37.960
  C      -32.459      21.499      37.848
  O      -33.825      21.961      37.754
  C      -32.015      21.247      36.412
  O      -30.850      20.449      36.359
  C      -33.265      20.604      35.837
  O      -33.325      19.209      36.158
  C      -34.390      21.379      36.559
  N      -34.987      22.404      35.703
  C      -35.885      21.955      34.741
  O      -36.191      20.773      34.596
  N      -36.381      22.913      33.897
  C      -35.965      24.212      33.837
  O      -36.249      24.967      32.914
  C      -35.064      24.643      34.916
  C      -34.612      23.731      35.779
  O      -30.532      25.580      39.444
  O      -32.567      26.168      38.012
  H      -32.230      27.054      38.242
  H      -32.544      18.803      35.728
  H      -37.001      22.587      33.168
  H      -34.768      25.685      34.946
  H      -33.919      24.017      36.564
  H      -35.181      20.691      36.884
  H      -33.301      20.697      34.750
  H      -31.843      22.204      35.905
  H      -32.453      20.568      38.428
  H      -31.950      22.611      39.622
  H      -30.552      22.240      38.578
  P      -29.460      21.081      35.876
  C      -28.488      18.812      35.158
  O      -28.841      20.128      34.745
  O      -28.514      21.450      36.969
  O      -29.894      22.379      35.042
  H      -29.378      23.145      35.362
  H      -28.088      18.272      34.325
  H      -29.357      18.308      35.526
  H      -27.753      18.867      35.933

 6  7  8  9  10  11  12  13  14  15  16  27  31  32  33  34  35 0
 6-311+G(2d,p)
 ****
 36  37 0
 6-311+G(2d,p)
 ****
 1  2  3  4  5  17  18  19  20  21  22  23  24  25 0
 3-21G
 ****
 26  28  29  30  38  39  40  41  42  43  44  45 0
 3-21G
 ****


