%nproc=1
%NoSave
%Mem=1900MB
#P OB98/GEN NMR

erre ene a

0 1
  C      -78.943     349.480      64.693
  O      -79.412     348.281      64.094
  P      -80.425     348.408      62.852
  C      -82.258     347.208      64.266
  O      -81.533     347.263      63.049
  C      -83.479     346.297      64.124
  O      -84.305     346.802      63.044
  C      -83.156     344.832      63.803
  O      -84.176     344.033      64.422
  C      -83.309     344.773      62.295
  O      -83.530     343.450      61.815
  C      -84.476     345.732      62.090
  N      -84.601     344.564      57.167
  C      -84.472     343.741      58.270
  N      -84.430     342.416      58.022
  N      -84.393     344.178      59.499
  C      -84.466     345.527      59.591
  C      -84.556     346.448      58.576
  C      -84.681     345.953      57.224
  O      -84.883     346.646      56.229
  N      -84.515     347.731      59.058
  C      -84.481     347.585      60.368
  N      -84.497     346.265      60.739
  O      -79.547     347.882      61.622
  O      -80.990     349.774      62.611
  H      -83.833     343.517      60.886
  H      -79.111     348.620      61.157
  H      -84.678     344.173      56.244
  H      -84.451     348.385      61.087
  H      -85.449     345.259      62.273
  H      -82.395     345.151      61.816
  H      -84.514     342.007      57.103
  H      -82.167     344.515      64.142
  H      -84.368     341.786      58.814
  H      -84.067     346.364      65.047
  H      -82.597     348.216      64.522
  H      -81.599     346.856      65.066
  P      -83.718     342.946      65.506
  C      -84.041     340.786      64.107
  O      -84.498     341.586      65.181
  O      -84.430     343.465      66.848
  O      -82.242     342.831      65.694
  H      -83.874     343.236      67.621
  H      -84.383     339.759      64.256
  H      -82.949     340.786      64.037
  H      -84.464     341.166      63.171
  H      -78.282     349.241      65.500
  H      -79.774     350.041      65.067
  H      -78.419     350.062      63.964

 3  4  5  6  7  8  9  10  11  12  23  26  30  31 0
 6-311+G(2d,p)
 ****
 33  35  36  37  38 0
 6-311+G(2d,p)
 ****
 1  2  13  14  15  16  17  18  19  20  21  22  24  25 0
 3-21G
 ****
 27  28  29  32  34  39  40  41  42  43  44  45  46  47  48  49 0
 3-21G
 ****


