%nproc=1
%NoSave
%Mem=1900MB
#P OB98/GEN NMR

erre ene a

0 1
  C      164.346     186.090    -515.747
  O      164.939     187.379    -515.559
  P      164.090     188.450    -514.719
  C      164.353     190.337    -516.489
  O      163.454     189.516    -515.749
  C      163.677     191.626    -516.980
  O      162.565     191.329    -517.866
  C      163.135     192.504    -515.846
  O      163.269     193.863    -516.245
  C      161.650     192.150    -515.823
  O      160.888     193.167    -515.187
  C      161.387     191.972    -517.326
  N      160.175     191.185    -517.599
  C      158.961     191.872    -517.601
  O      158.928     193.068    -517.306
  N      157.802     191.191    -517.890
  C      157.853     189.910    -518.110
  N      156.677     189.289    -518.395
  C      159.104     189.132    -518.064
  C      160.213     189.821    -517.810
  O      165.212     189.288    -513.943
  O      163.120     187.837    -513.769
  H      159.932     192.915    -515.241
  H      164.984     189.359    -512.997
  H      159.094     188.055    -518.228
  H      161.184     189.334    -517.755
  H      161.272     192.938    -517.821
  H      161.490     191.200    -515.282
  H      163.638     192.335    -514.889
  H      164.413     192.200    -517.560
  H      155.845     189.863    -518.427
  H      164.732     189.782    -517.356
  H      156.591     188.295    -518.572
  H      165.229     190.560    -515.867
  P      163.722     194.946    -515.145
  C      161.462     196.133    -515.478
  O      162.340     195.515    -514.548
  O      164.196     196.168    -516.075
  O      164.775     194.566    -514.157
  H      164.560     196.883    -515.510
  H      160.516     196.358    -514.968
  H      161.249     195.448    -516.313
  H      161.897     197.063    -515.847
  H      165.007     185.473    -516.319
  H      163.418     186.197    -516.269
  H      164.169     185.636    -514.794

 3  4  5  6  7  8  9  10  11  12  13  21  23  27  28  29  30  32 0
 6-311+G(2d,p)
 ****
 34  35 0
 6-311+G(2d,p)
 ****
 1  2  14  15  16  17  18  19  20  22  24  25  26 0
 3-21G
 ****
 31  33  36  37  38  39  40  41  42  43  44  45  46 0
 3-21G
 ****


