%nproc=1
%NoSave
%Mem=1900MB
#P OB98/GEN NMR

erre ene a

0 1
  C      -22.228     495.426     733.900
  O      -22.775     496.646     733.449
  H      -21.463     495.103     733.183
  H      -23.004     494.653     733.946
  H      -21.757     495.544     734.880
  P      -23.929     497.335     734.328
  C      -22.890     499.604     733.613
  O      -24.071     498.817     733.705
  C      -22.690     500.083     732.179
  O      -23.847     500.817     731.706
  C      -21.526     501.054     731.989
  O      -20.253     500.432     732.054
  C      -21.843     501.568     730.594
  O      -21.501     500.577     729.619
  C      -23.382     501.755     730.697
  N      -23.767     503.114     731.060
  C      -23.371     504.137     730.183
  O      -22.743     503.872     729.151
  N      -23.698     505.435     730.479
  C      -24.319     505.708     731.590
  N      -24.599     507.020     731.854
  C      -24.725     504.672     732.563
  C      -24.418     503.417     732.234
  O      -23.747     497.278     735.811
  O      -25.279     496.644     733.822
  H      -20.524     500.564     729.560
  H      -26.030     497.028     734.341
  H      -25.213     504.946     733.482
  H      -24.680     502.601     732.903
  H      -23.868     501.488     729.750
  H      -21.298     502.489     730.342
  H      -21.593     501.887     732.697
  H      -22.583     499.196     731.545
  H      -24.306     507.702     731.169
  H      -22.045     498.995     733.944
  H      -25.015     507.319     732.715
  H      -22.977     500.481     734.269
  P      -19.143     501.142     732.978
  C      -17.730     498.975     733.326
  O      -17.801     500.292     732.805
  O      -19.630     500.799     734.456
  O      -18.975     502.615     732.755
  H      -20.131     501.549     734.846
  H      -16.765     498.561     733.119
  H      -18.484     498.369     732.868
  H      -17.888     499.001     734.384

 6  7  8  9  10  11  12  13  14  15  16  26  30  31  32  33  35 0
 6-311+G(2d,p)
 ****
 37  38 0
 6-311+G(2d,p)
 ****
 1  2  3  4  5  17  18  19  20  21  22  23  24  25 0
 3-21G
 ****
 27  28  29  34  36  39  40  41  42  43  44  45  46 0
 3-21G
 ****


