%nproc=1
%NoSave
%Mem=1900MB
#P OB98/GEN NMR

erre ene a

0 1
  C     -201.325     532.864    -220.934
  O     -201.725     532.005    -219.889
  H     -201.946     533.769    -220.905
  H     -201.463     532.380    -221.904
  H     -200.277     533.148    -220.801
  P     -201.014     530.566    -219.817
  C     -200.082     530.760    -217.396
  O     -199.787     530.704    -218.785
  C     -200.103     532.224    -216.951
  O     -201.097     532.951    -217.708
  C     -200.494     532.415    -215.493
  O     -199.422     532.168    -214.597
  C     -200.905     533.881    -215.492
  O     -199.773     534.756    -215.338
  C     -201.544     534.050    -216.878
  N     -202.998     534.107    -216.798
  C     -203.559     535.388    -216.821
  O     -202.883     536.413    -216.889
  N     -204.921     535.442    -216.698
  C     -205.753     534.385    -216.526
  O     -206.968     534.517    -216.371
  C     -205.115     533.062    -216.502
  C     -203.789     532.974    -216.635
  O     -200.308     530.442    -221.248
  O     -201.940     529.420    -219.540
  H     -200.798     529.805    -221.805
  H     -199.299     534.439    -214.534
  H     -205.344     536.368    -216.705
  H     -205.750     532.189    -216.362
  H     -203.287     532.025    -216.613
  H     -201.194     534.970    -217.361
  H     -201.583     534.102    -214.680
  H     -201.369     531.807    -215.248
  H     -199.119     532.667    -217.154
  H     -199.312     530.233    -216.832
  H     -201.046     530.279    -217.214
  P     -199.599     530.960    -213.539
  C     -197.814     529.263    -214.451
  O     -199.181     529.625    -214.320
  O     -201.197     530.888    -213.447
  O     -198.894     531.205    -212.248
  H     -201.629     531.209    -214.264
  H     -197.738     528.348    -215.000
  H     -197.385     529.133    -213.480
  H     -197.289     530.036    -214.972

 6  7  8  9  10  11  12  13  14  15  16  27  31  32  33  34  35 0
 6-311+G(2d,p)
 ****
 36  37 0
 6-311+G(2d,p)
 ****
 1  2  3  4  5  17  18  19  20  21  22  23  24  25 0
 3-21G
 ****
 26  28  29  30  38  39  40  41  42  43  44  45 0
 3-21G
 ****


