%nproc=1
%NoSave
%Mem=1900MB
#P OB98/GEN NMR

erre ene a

0 1
  C      -99.969     207.980    -467.253
  O     -100.892     206.914    -467.356
  H     -100.354     208.737    -466.571
  H      -99.024     207.584    -466.859
  H      -99.777     208.419    -468.238
  P     -102.288     207.234    -468.086
  C     -104.595     208.143    -467.285
  O     -103.263     207.785    -466.931
  C     -105.546     207.922    -466.109
  O     -105.695     206.481    -465.902
  C     -105.048     208.528    -464.786
  O     -106.168     209.068    -464.082
  C     -104.477     207.341    -464.039
  O     -104.482     207.541    -462.630
  C     -105.382     206.213    -464.514
  N     -105.350     201.871    -461.821
  C     -106.154     202.956    -461.786
  N     -106.107     204.074    -462.535
  C     -105.121     203.966    -463.438
  C     -104.211     202.940    -463.602
  C     -104.339     201.848    -462.728
  N     -103.493     200.759    -462.733
  N     -103.315     203.228    -464.628
  C     -103.676     204.415    -465.064
  N     -104.754     204.908    -464.388
  O     -102.859     205.767    -468.393
  O     -102.197     208.074    -469.318
  H     -104.394     206.671    -462.183
  H     -102.423     205.408    -469.188
  H     -106.951     202.922    -461.042
  H     -103.181     204.957    -465.866
  H     -106.336     206.173    -463.960
  H     -103.437     207.161    -464.360
  H     -104.305     209.319    -464.947
  H     -106.535     208.308    -466.376
  H     -104.921     207.536    -468.148
  H     -103.638     200.043    -462.036
  H     -102.708     200.747    -463.361
  H     -104.608     209.206    -467.575
  P     -105.980     210.529    -463.418
  C     -105.098     211.517    -461.213
  O     -105.275     210.354    -461.987
  O     -107.486     210.966    -463.059
  O     -105.336     211.506    -464.345
  H     -107.665     211.858    -463.407
  H     -104.620     211.262    -460.290
  H     -106.051     211.959    -461.011
  H     -104.488     212.213    -461.750

 6  7  8  9  10  11  12  13  14  15  25  28  32  33  34  35 0
 6-311+G(2d,p)
 ****
 36  39  40 0
 6-311+G(2d,p)
 ****
 1  2  3  4  5  16  17  18  19  20  21  22  23  24 0
 3-21G
 ****
 26  27  29  30  31  37  38  41  42  43  44  45  46  47 0
 3-21G
 ****
 48 0
 3-21G
 ****


