%nproc=1
%NoSave
%Mem=1900MB
#P OB98/GEN NMR

erre ene a

0 1
  C     -121.470     114.443     -11.080
  O     -120.969     113.816     -12.262
  P     -119.413     113.445     -12.346
  C     -117.240     114.468     -13.280
  O     -118.645     114.618     -13.132
  C     -116.550     115.838     -13.331
  O     -116.987     116.590     -14.500
  C     -116.860     116.699     -12.099
  O     -115.737     117.530     -11.768
  C     -117.975     117.602     -12.592
  O     -118.094     118.776     -11.793
  C     -117.529     117.842     -14.032
  N     -120.217     121.875     -15.683
  C     -119.137     121.785     -14.876
  N     -118.461     120.680     -14.499
  C     -118.997     119.582     -15.058
  C     -120.090     119.520     -15.908
  C     -120.720     120.738     -16.215
  N     -121.837     120.826     -17.014
  N     -120.353     118.216     -16.277
  C     -119.462     117.500     -15.621
  N     -118.602     118.281     -14.899
  O     -119.101     112.064     -12.817
  O     -118.915     113.662     -10.837
  H     -118.160     118.492     -10.863
  H     -118.307     112.936     -10.594
  H     -118.772     122.727     -14.475
  H     -119.406     116.421     -15.624
  H     -116.728     118.590     -14.090
  H     -118.930     117.066     -12.557
  H     -117.152     116.132     -11.210
  H     -115.469     115.689     -13.433
  H     -117.024     113.909     -14.192
  H     -122.288     121.726     -17.084
  H     -122.306     119.977     -17.294
  H     -116.856     113.859     -12.455
  P     -114.796     117.001     -10.573
  C     -114.853     117.349      -7.983
  O     -115.302     117.757      -9.255
  O     -113.338     117.102     -10.873
  O     -115.312     115.498     -10.389
  H     -116.276     115.404     -10.305
  H     -115.208     118.065      -7.238
  H     -113.761     117.321      -7.945
  H     -115.257     116.362      -7.741
  H     -122.520     114.621     -11.188
  H     -120.964     115.374     -10.928
  H     -121.301     113.804     -10.238

 3  4  5  6  7  8  9  10  11  12  22  25  29  30  31  32 0
 6-311+G(2d,p)
 ****
 33  36  37 0
 6-311+G(2d,p)
 ****
 1  2  13  14  15  16  17  18  19  20  21  23  24  26 0
 3-21G
 ****
 27  28  34  35  38  39  40  41  42  43  44  45  46  47  48 0
 3-21G
 ****


