%nproc=1
%NoSave
%Mem=1900MB
#P OB98/GEN NMR

erre ene a

0 1
  C       35.545      84.169    -101.126
  O       34.674      83.335    -101.872
  P       33.749      83.945    -103.029
  C       31.827      82.586    -101.994
  O       32.504      82.944    -103.194
  C       31.726      81.067    -101.864
  O       30.873      80.564    -102.920
  C       33.071      80.359    -101.985
  O       33.081      79.233    -101.104
  C       33.097      79.845    -103.415
  O       33.952      78.695    -103.540
  C       31.612      79.578    -103.668
  N       31.108      77.091    -108.130
  C       31.457      76.663    -106.897
  N       31.595      77.383    -105.763
  C       31.275      78.669    -105.978
  C       30.900      79.252    -107.179
  C       30.820      78.404    -108.296
  N       30.453      78.842    -109.550
  N       30.681      80.607    -107.016
  C       30.901      80.828    -105.740
  N       31.254      79.687    -105.068
  O       34.457      84.268    -104.299
  O       33.087      85.241    -102.371
  H       33.953      78.439    -104.485
  H       33.023      85.961    -103.029
  H       31.655      75.598    -106.811
  H       30.833      81.792    -105.256
  H       31.313      78.586    -103.308
  H       33.486      80.626    -104.078
  H       33.921      81.014    -101.763
  H       31.245      80.829    -100.909
  H       30.820      83.011    -102.027
  H       30.306      78.142    -110.260
  H       30.073      79.775    -109.636
  H       32.356      83.015    -101.136
  P       34.224      79.237     -99.969
  C       34.462      76.768    -100.758
  O       34.531      77.689     -99.694
  O       33.845      80.077     -98.795
  O       35.484      79.777    -100.799
  H       35.389      79.589    -101.760
  H       34.663      75.766    -100.368
  H       35.219      77.005    -101.511
  H       33.468      76.779    -101.212
  H       36.074      83.580    -100.406
  H       34.974      84.920    -100.622
  H       36.245      84.636    -101.787

 3  4  5  6  7  8  9  10  11  12  22  25  29  30  31  32 0
 6-311+G(2d,p)
 ****
 33  36  37 0
 6-311+G(2d,p)
 ****
 1  2  13  14  15  16  17  18  19  20  21  23  24  26 0
 3-21G
 ****
 27  28  34  35  38  39  40  41  42  43  44  45  46  47  48 0
 3-21G
 ****


