%nproc=1
%NoSave
%Mem=1900MB
#P OB98/GEN NMR

erre ene a

0 1
  C      765.871     385.604     168.745
  O      765.447     385.478     167.402
  H      766.272     384.641     169.074
  H      765.026     385.869     169.385
  H      766.657     386.358     168.837
  P      764.957     386.789     166.623
  C      762.689     385.605     166.287
  O      763.743     386.344     165.675
  C      761.914     384.833     165.216
  O      761.292     385.753     164.291
  C      762.785     383.917     164.365
  O      763.127     382.739     165.067
  C      761.884     383.699     163.159
  O      760.895     382.697     163.435
  C      761.228     385.093     163.001
  N      761.859     385.904     161.962
  C      761.144     386.065     160.782
  O      760.049     385.540     160.583
  N      761.744     386.832     159.819
  C      763.007     387.346     159.877
  O      763.534     387.948     158.946
  C      763.733     387.116     161.131
  C      763.131     386.422     162.103
  O      766.027     387.579     165.945
  O      764.225     387.653     167.758
  H      760.413     382.996     164.229
  H      764.797     388.396     168.019
  H      761.242     386.953     158.950
  H      764.729     387.521     161.221
  H      763.655     386.241     163.037
  H      760.166     384.986     162.759
  H      762.436     383.374     162.279
  H      763.690     384.447     164.038
  H      761.115     384.266     165.712
  H      762.015     386.304     166.789
  H      763.114     384.918     167.023
  P      764.667     382.387     165.332
  C      763.831     379.960     165.071
  O      764.754     380.835     165.729
  O      765.391     383.316     166.243
  O      765.316     382.418     163.866
  H      766.019     383.096     163.839
  H      763.983     378.958     165.414
  H      763.991     380.003     164.014
  H      762.830     380.265     165.293

 6  7  8  9  10  11  12  13  14  15  16  26  31  32  33  34  35 0
 6-311+G(2d,p)
 ****
 36  37 0
 6-311+G(2d,p)
 ****
 1  2  3  4  5  17  18  19  20  21  22  23  24  25 0
 3-21G
 ****
 27  28  29  30  38  39  40  41  42  43  44  45 0
 3-21G
 ****


