%nproc=1
%NoSave
%Mem=1900MB
#P OB98/GEN NMR

erre ene a

0 1
  C      977.167    -264.278     214.090
  O      977.293    -264.720     212.734
  P      977.080    -266.283     212.395
  C      974.746    -265.926     211.261
  O      975.503    -266.579     212.265
  C      973.261    -266.263     211.406
  O      972.841    -266.121     212.778
  C      972.323    -265.362     210.610
  O      972.317    -265.690     209.231
  C      970.985    -265.616     211.310
  O      970.372    -266.819     210.807
  C      971.440    -265.800     212.780
  N      971.144    -264.632     213.601
  C      969.959    -264.661     214.332
  O      969.138    -265.588     214.250
  N      969.715    -263.579     215.127
  C      970.482    -262.448     215.213
  O      970.199    -261.498     215.924
  C      971.682    -262.448     214.357
  C      971.952    -263.508     213.608
  O      977.433    -266.983     213.808
  O      977.945    -266.834     211.304
  H      970.959    -267.568     211.054
  H      977.769    -267.880     213.650
  H      968.858    -263.600     215.678
  H      972.320    -261.556     214.383
  H      972.832    -263.508     212.973
  H      970.923    -266.680     213.204
  H      970.279    -264.801     211.152
  H      972.610    -264.306     210.764
  H      973.120    -267.315     211.117
  H      975.099    -266.251     210.277
  H      974.911    -264.852     211.342
  P      973.485    -265.047     208.322
  C      974.514    -267.414     207.901
  O      974.685    -266.103     208.383
  O      973.949    -263.824     209.254
  O      973.018    -264.646     206.955
  H      973.883    -264.044     210.216
  H      973.815    -267.451     207.052
  H      974.121    -268.046     208.722
  H      975.479    -267.815     207.584
  H      977.337    -263.223     214.138
  H      977.887    -264.784     214.698
  H      976.182    -264.497     214.446

 3  4  5  6  7  8  9  10  11  12  13  23  28  29  30  31  32 0
 6-311+G(2d,p)
 ****
 33  34 0
 6-311+G(2d,p)
 ****
 1  2  14  15  16  17  18  19  20  21  22  24  25  26 0
 3-21G
 ****
 27  35  36  37  38  39  40  41  42  43  44  45 0
 3-21G
 ****


