%nproc=1
%NoSave
%Mem=1900MB
#P OB98/GEN NMR

erre ene a

0 1
  C     1390.259    1295.750     171.234
  O     1391.362    1295.521     172.095
  P     1392.837    1295.875     171.538
  C     1393.103    1297.530     173.516
  O     1393.172    1297.334     172.107
  C     1394.507    1297.540     174.123
  O     1395.334    1298.560     173.497
  C     1394.571    1297.825     175.610
  O     1394.288    1296.680     176.399
  C     1396.028    1298.254     175.783
  O     1396.869    1297.076     175.826
  C     1396.285    1299.047     174.477
  N     1398.724    1303.464     175.311
  C     1399.156    1302.175     175.278
  N     1398.443    1301.062     175.080
  C     1397.139    1301.333     174.892
  C     1396.537    1302.605     174.945
  C     1397.391    1303.689     175.155
  N     1396.951    1305.009     175.160
  N     1395.181    1302.492     174.747
  C     1394.963    1301.209     174.566
  N     1396.108    1300.473     174.644
  O     1392.579    1296.129     169.979
  O     1393.867    1294.813     171.786
  H     1396.703    1296.594     175.015
  H     1393.406    1295.984     169.488
  H     1400.226    1302.045     175.454
  H     1393.986    1300.762     174.369
  H     1397.277    1298.864     174.079
  H     1396.196    1298.812     176.697
  H     1393.914    1298.678     175.876
  H     1394.979    1296.563     173.909
  H     1392.533    1296.730     173.980
  H     1397.639    1305.740     175.126
  H     1395.997    1305.180     174.851
  H     1392.615    1298.492     173.727
  P     1392.870    1296.668     177.189
  C     1391.715    1295.203     175.384
  O     1391.765    1296.448     176.054
  O     1392.699    1298.187     177.641
  O     1392.839    1295.723     178.342
  H     1392.122    1298.246     178.428
  H     1390.742    1295.131     174.883
  H     1391.839    1294.364     176.074
  H     1392.495    1295.162     174.619
  H     1389.354    1295.472     171.732
  H     1390.372    1295.163     170.346
  H     1390.219    1296.787     170.974

 3  4  5  6  7  8  9  10  11  12  22  25  29  30  31  32 0
 6-311+G(2d,p)
 ****
 33  36  37 0
 6-311+G(2d,p)
 ****
 1  2  13  14  15  16  17  18  19  20  21  23  24  26 0
 3-21G
 ****
 27  28  34  35  38  39  40  41  42  43  44  45  46  47  48 0
 3-21G
 ****


