%nproc=1
%NoSave
%Mem=1900MB
#P OB98/GEN NMR

erre ene a

0 1
  C     -408.535     113.609    1274.154
  O     -407.464     114.505    1274.288
  H     -408.349     112.738    1274.800
  H     -408.606     113.264    1273.115
  H     -409.483     114.072    1274.444
  P     -407.601     115.989    1273.683
  C     -406.676     117.229    1275.764
  O     -406.464     116.879    1274.392
  C     -405.346     117.497    1276.471
  O     -404.506     116.313    1276.382
  C     -404.552     118.664    1275.852
  O     -403.808     119.287    1276.917
  C     -403.606     117.938    1274.904
  O     -402.528     118.750    1274.537
  C     -403.277     116.692    1275.739
  N     -402.724     115.603    1274.926
  C     -401.343     115.416    1275.008
  O     -400.591     116.142    1275.685
  N     -400.827     114.413    1274.234
  C     -401.537     113.631    1273.371
  O     -401.020     112.768    1272.669
  C     -402.978     113.898    1273.290
  C     -403.502     114.862    1274.052
  O     -408.970     116.579    1273.718
  O     -407.053     115.864    1272.178
  H     -402.847     119.585    1274.116
  H     -407.502     116.499    1271.602
  H     -399.829     114.257    1274.281
  H     -403.570     113.312    1272.604
  H     -404.565     115.090    1274.021
  H     -402.549     116.929    1276.523
  H     -404.137     117.652    1273.981
  H     -405.177     119.414    1275.351
  H     -405.558     117.672    1277.542
  H     -407.184     116.370    1276.242
  H     -407.329     118.097    1275.825
  P     -404.103     120.785    1277.407
  C     -404.178     119.907    1279.845
  O     -403.658     120.912    1278.962
  O     -405.469     121.271    1277.111
  O     -403.006     121.668    1276.655
  H     -403.359     122.579    1276.524
  H     -403.823     120.087    1280.838
  H     -403.851     118.942    1279.519
  H     -405.247     119.943    1279.836

 6  7  8  9  10  11  12  13  14  15  16  26  31  32  33  34  35 0
 6-311+G(2d,p)
 ****
 36  37 0
 6-311+G(2d,p)
 ****
 1  2  3  4  5  17  18  19  20  21  22  23  24  25 0
 3-21G
 ****
 27  28  29  30  38  39  40  41  42  43  44  45 0
 3-21G
 ****


