%nproc=1
%NoSave
%Mem=1900MB
#P OB98/GEN NMR

erre ene a

0 1
  C      210.834    -137.335    -897.080
  O      211.657    -136.974    -895.990
  H      211.373    -137.194    -898.020
  H      210.564    -138.390    -896.990
  H      209.922    -136.733    -897.080
  P      212.167    -135.453    -895.930
  C      213.563    -135.638    -898.120
  O      213.570    -135.431    -896.710
  C      214.881    -135.155    -898.710
  O      215.038    -133.731    -898.500
  C      216.122    -135.808    -898.100
  O      216.384    -137.082    -898.660
  C      217.184    -134.803    -898.510
  O      217.521    -134.985    -899.910
  C      216.452    -133.466    -898.310
  N      219.759    -130.966    -895.310
  C      219.856    -131.438    -896.570
  N      218.943    -132.090    -897.300
  C      217.812    -132.262    -896.590
  C      217.558    -131.854    -895.300
  C      218.603    -131.162    -894.640
  N      218.505    -130.699    -893.350
  N      216.298    -132.232    -894.890
  C      215.776    -132.839    -895.940
  N      216.659    -132.892    -896.990
  O      212.596    -135.261    -894.410
  O      211.183    -134.422    -896.390
  H      217.813    -135.904    -900.000
  H      212.611    -134.306    -894.180
  H      220.812    -131.250    -897.070
  H      214.782    -133.253    -896.000
  H      216.747    -132.712    -899.050
  H      218.112    -134.908    -897.950
  H      216.054    -135.846    -897.010
  H      214.845    -135.329    -899.800
  H      212.737    -135.076    -898.560
  H      219.364    -130.396    -892.920
  H      217.703    -130.982    -892.800
  H      213.412    -136.705    -898.320
  P      216.164    -138.358    -897.710
  C      218.224    -137.809    -896.220
  O      217.616    -138.728    -897.130
  O      215.865    -139.541    -898.740
  O      215.076    -138.201    -896.700
  H      215.325    -140.241    -898.330
  H      219.180    -138.184    -895.920
  H      217.600    -137.694    -895.359
  H      218.348    -136.861    -896.700

 6  7  8  9  10  11  12  13  14  15  25  28  32  33  34  35 0
 6-311+G(2d,p)
 ****
 36  39  40 0
 6-311+G(2d,p)
 ****
 1  2  3  4  5  16  17  18  19  20  21  22  23  24 0
 3-21G
 ****
 26  27  29  30  31  37  38  41  42  43  44  45  46  47 0
 3-21G
 ****
 48 0
 3-21G
 ****


