%nproc=1
%NoSave
%Mem=1900MB
#P OB98/GEN NMR

erre ene a

0 1
  C      413.447     156.071     -75.279
  O      414.659     155.431     -74.944
  H      412.732     155.916     -74.464
  H      413.028     155.644     -76.195
  H      413.615     157.145     -75.410
  P      415.817     155.443     -76.056
  C      416.612     153.162     -77.039
  O      415.584     154.150     -76.986
  C      416.219     151.984     -76.145
  O      414.810     151.689     -76.310
  C      416.948     150.688     -76.479
  O      418.264     150.648     -75.960
  C      416.034     149.668     -75.826
  O      416.326     149.505     -74.430
  C      414.635     150.286     -76.027
  N      413.890     149.601     -77.087
  C      413.395     148.339     -76.757
  O      413.548     147.817     -75.661
  N      412.733     147.678     -77.764
  C      412.573     148.128     -79.046
  O      412.022     147.450     -79.917
  C      413.133     149.454     -79.339
  C      413.762     150.119     -78.360
  O      417.133     155.078     -75.217
  O      415.967     156.733     -76.802
  H      417.685     155.879     -75.108
  H      415.633     148.916     -74.071
  H      412.370     146.762     -77.548
  H      413.024     149.841     -80.347
  H      414.193     151.098     -78.557
  H      414.045     150.215     -75.104
  H      416.140     148.688     -76.293
  H      416.943     150.519     -77.568
  H      416.392     152.263     -75.100
  H      417.549     153.590     -76.672
  H      416.744     152.841     -78.076
  P      419.318     149.660     -76.666
  C      420.042     147.609     -75.176
  O      419.064     148.213     -76.006
  O      420.684     150.169     -76.011
  O      419.264     149.712     -78.158
  H      420.534     150.568     -75.131
  H      419.686     146.658     -74.839
  H      420.231     148.238     -74.332
  H      420.947     147.475     -75.731

 6  7  8  9  10  11  12  13  14  15  16  27  31  32  33  34  35 0
 6-311+G(2d,p)
 ****
 36  37 0
 6-311+G(2d,p)
 ****
 1  2  3  4  5  17  18  19  20  21  22  23  24  25 0
 3-21G
 ****
 26  28  29  30  38  39  40  41  42  43  44  45 0
 3-21G
 ****


