%nproc=1
%NoSave
%Mem=1900MB
#P OB98/GEN NMR

erre ene a

0 1
  C     1148.837    -401.097    -169.846
  O     1148.711    -399.675    -169.887
  P     1147.479    -399.061    -170.723
  C     1146.568    -397.704    -168.683
  O     1147.120    -397.686    -169.997
  C     1146.884    -396.394    -167.954
  O     1148.242    -396.423    -167.403
  C     1146.856    -395.169    -168.851
  O     1145.515    -394.782    -169.151
  C     1147.625    -394.158    -168.007
  O     1146.769    -393.596    -167.000
  C     1148.703    -395.063    -167.362
  N     1150.015    -394.913    -167.973
  C     1150.889    -394.003    -167.354
  O     1150.569    -393.348    -166.383
  N     1152.120    -393.883    -167.925
  C     1152.551    -394.544    -169.047
  O     1153.675    -394.379    -169.509
  C     1151.589    -395.436    -169.689
  C     1150.372    -395.588    -169.128
  O     1146.299    -400.061    -170.306
  O     1147.757    -398.981    -172.187
  H     1146.375    -400.369    -169.392
  H     1146.772    -394.244    -166.259
  H     1152.767    -393.230    -167.485
  H     1151.882    -395.938    -170.594
  H     1149.651    -396.247    -169.569
  H     1148.794    -394.826    -166.285
  H     1148.029    -393.319    -168.600
  H     1147.393    -395.371    -169.789
  H     1146.182    -396.275    -167.124
  H     1146.989    -398.537    -168.106
  H     1145.492    -397.866    -168.742
  P     1145.333    -393.622    -170.252
  C     1144.036    -395.206    -171.896
  O     1144.033    -394.021    -171.131
  O     1146.559    -393.900    -171.238
  O     1145.289    -392.248    -169.666
  H     1146.677    -394.851    -171.436
  H     1143.002    -395.472    -172.113
  H     1144.520    -396.027    -171.360
  H     1144.561    -395.024    -172.834
  H     1149.692    -401.363    -169.260
  H     1148.955    -401.473    -170.841
  H     1147.958    -401.520    -169.406

 3  4  5  6  7  8  9  10  11  12  13  24  28  29  30  31  32 0
 6-311+G(2d,p)
 ****
 33  34 0
 6-311+G(2d,p)
 ****
 1  2  14  15  16  17  18  19  20  21  22  23  25  26  27 0
 3-21G
 ****
 35  36  37  38  39  40  41  42  43  44  45 0
 3-21G
 ****


