%nproc=1
%NoSave
%Mem=1900MB
#P OB98/GEN NMR

erre ene a

0 1
  C     -347.589    -431.305      69.959
  O     -348.251    -432.553      70.000
  H     -346.516    -431.483      69.848
  H     -347.757    -430.763      70.893
  H     -347.937    -430.708      69.111
  P     -349.853    -432.586      70.019
  C     -349.953    -433.429      72.458
  O     -350.317    -432.400      71.546
  C     -351.088    -433.705      73.449
  O     -351.098    -432.649      74.448
  C     -352.474    -433.753      72.799
  O     -353.257    -434.759      73.440
  C     -353.051    -432.381      73.097
  O     -354.478    -432.385      73.119
  C     -352.420    -432.061      74.450
  N     -355.117    -427.798      74.814
  C     -355.532    -429.109      74.660
  N     -356.869    -429.312      74.573
  N     -354.714    -430.128      74.594
  C     -353.410    -429.777      74.720
  C     -352.869    -428.519      74.876
  C     -353.791    -427.400      74.922
  O     -353.477    -426.215      75.041
  N     -351.501    -428.568      74.944
  C     -351.210    -429.854      74.829
  N     -352.337    -430.629      74.682
  O     -350.472    -433.756      69.319
  O     -350.283    -431.205      69.339
  H     -354.762    -431.548      73.543
  H     -350.609    -431.346      68.432
  H     -355.788    -427.054      74.847
  H     -350.215    -430.276      74.848
  H     -352.986    -432.486      75.287
  H     -352.723    -431.668      72.331
  H     -357.552    -428.575      74.640
  H     -352.421    -433.957      71.728
  H     -357.197    -430.270      74.491
  H     -350.868    -434.641      73.979
  H     -349.055    -433.101      73.004
  H     -349.710    -434.339      71.898
  P     -353.334    -436.224      72.791
  C     -355.899    -436.058      72.678
  O     -354.704    -436.356      71.962
  O     -353.048    -437.356      73.720
  O     -352.227    -436.149      71.622
  H     -351.800    -437.027      71.531
  H     -356.742    -436.179      72.030
  H     -355.861    -435.048      73.030
  H     -355.991    -436.723      73.511

 6  7  8  9  10  11  12  13  14  15  26  29  33  34 0
 6-311+G(2d,p)
 ****
 36  38  39  40  41 0
 6-311+G(2d,p)
 ****
 1  2  3  4  5  16  17  18  19  20  21  22  23  24  25 0
 3-21G
 ****
 27  28  30  31  32  35  37  42  43  44  45  46  47 0
 3-21G
 ****
 48  49 0
 3-21G
 ****


