%nproc=1
%NoSave
%Mem=1900MB
#P OB98/GEN NMR

erre ene a

0 1
  C      144.018      63.487     -55.345
  O      142.951      64.272     -55.851
  P      141.674      64.497     -54.905
  C      140.182      62.769     -53.597
  O      141.015      63.048     -54.710
  C      139.390      61.481     -53.842
  O      138.352      61.722     -54.816
  C      140.212      60.327     -54.400
  O      140.998      59.705     -53.397
  C      139.119      59.444     -54.990
  O      138.494      58.665     -53.956
  C      138.127      60.492     -55.538
  N      138.244      60.696     -56.981
  C      137.055      60.670     -57.703
  O      135.955      60.489     -57.184
  N      137.176      60.841     -59.057
  C      138.346      60.967     -59.750
  O      138.399      61.075     -60.968
  C      139.571      60.954     -58.935
  C      139.465      60.822     -57.611
  O      140.693      65.258     -55.914
  O      141.995      65.237     -53.653
  H      140.876      65.026     -56.841
  H      138.203      59.299     -53.270
  H      136.326      60.850     -59.601
  H      140.518      61.043     -59.451
  H      140.358      60.800     -56.997
  H      137.096      60.191     -55.314
  H      139.500      58.745     -55.743
  H      140.864      60.689     -55.205
  H      138.910      61.191     -52.898
  H      139.492      63.602     -53.450
  H      140.806      62.670     -52.702
  P      142.339      58.962     -53.892
  C      142.733      56.899     -55.445
  O      141.864      57.598     -54.583
  O      142.969      58.500     -52.494
  O      143.232      59.826     -54.719
  H      142.307      58.148     -51.878
  H      142.391      55.862     -55.523
  H      143.760      56.905     -55.070
  H      142.706      57.354     -56.439
  H      144.794      63.424     -56.079
  H      143.661      62.504     -55.118
  H      144.404      63.941     -54.456

 3  4  5  6  7  8  9  10  11  12  13  24  28  29  30  31  32 0
 6-311+G(2d,p)
 ****
 33  34 0
 6-311+G(2d,p)
 ****
 1  2  14  15  16  17  18  19  20  21  22  23  25  26  27 0
 3-21G
 ****
 35  36  37  38  39  40  41  42  43  44  45 0
 3-21G
 ****


