%nproc=1
%NoSave
%Mem=1900MB
#P OB98/GEN NMR

erre ene a

0 1
  C      -67.432     166.164     -20.674
  O      -68.412     165.753     -21.604
  H      -66.492     165.657     -20.910
  H      -67.731     165.888     -19.661
  H      -67.269     167.244     -20.732
  P      -69.854     166.450     -21.566
  C      -70.872     164.478     -20.256
  O      -70.614     165.877     -20.275
  C      -72.309     164.222     -19.807
  O      -72.620     165.021     -18.643
  C      -73.356     164.587     -20.853
  O      -73.406     163.613     -21.877
  C      -74.599     164.678     -19.982
  O      -75.123     163.372     -19.692
  C      -74.031     165.330     -18.698
  N      -74.256     166.776     -18.650
  C      -75.476     167.189     -18.125
  O      -76.335     166.409     -17.721
  N      -75.696     168.542     -18.121
  C      -74.871     169.484     -18.663
  O      -75.203     170.653     -18.835
  C      -73.567     168.997     -19.135
  C      -73.328     167.684     -19.122
  O      -70.635     166.393     -22.836
  O      -69.529     167.962     -21.146
  H      -69.552     168.529     -21.941
  H      -75.708     163.475     -18.917
  H      -76.598     168.849     -17.787
  H      -72.857     169.722     -19.512
  H      -72.385     167.299     -19.492
  H      -74.489     164.884     -17.807
  H      -75.401     165.245     -20.457
  H      -73.143     165.579     -21.270
  H      -72.394     163.165     -19.523
  H      -70.180     164.007     -19.549
  H      -70.696     164.067     -21.254
  P      -73.515     164.035     -23.417
  C      -76.063     163.765     -23.351
  O      -74.980     164.631     -23.665
  O      -73.101     162.983     -24.392
  O      -72.576     165.327     -23.539
  H      -71.934     165.188     -24.261
  H      -76.988     164.263     -23.554
  H      -76.020     163.501     -22.315
  H      -75.996     162.879     -23.948

 6  7  8  9  10  11  12  13  14  15  16  27  31  32  33  34  35 0
 6-311+G(2d,p)
 ****
 36  37 0
 6-311+G(2d,p)
 ****
 1  2  3  4  5  17  18  19  20  21  22  23  24  25 0
 3-21G
 ****
 26  28  29  30  38  39  40  41  42  43  44  45 0
 3-21G
 ****


