%nproc=1
%NoSave
%Mem=1900MB
#P OB98/GEN NMR

erre ene a

0 1
  C      348.154     544.946     144.293
  O      349.213     544.016     144.226
  H      348.569     545.953     144.209
  H      347.646     544.860     145.256
  H      347.441     544.796     143.480
  P      348.867     542.462     144.031
  C      350.123     542.226     141.792
  O      348.866     542.191     142.450
  C      349.963     541.961     140.294
  O      349.467     540.604     140.105
  C      348.982     542.911     139.594
  O      349.426     543.073     138.243
  C      347.696     542.107     139.629
  O      346.752     542.597     138.703
  C      348.234     540.697     139.366
  N      347.282     539.656     139.744
  C      346.393     539.238     138.764
  O      346.356     539.728     137.630
  N      345.498     538.270     139.131
  C      345.377     537.730     140.381
  O      344.539     536.885     140.658
  C      346.321     538.240     141.390
  C      347.214     539.166     141.028
  O      347.654     541.974     144.750
  O      350.188     541.699     144.515
  H      345.964     542.011     138.681
  H      349.958     540.827     144.885
  H      344.851     537.951     138.425
  H      346.240     537.843     142.390
  H      347.922     539.557     141.753
  H      348.468     540.566     138.301
  H      347.235     542.160     140.622
  H      348.892     543.882     140.086
  H      350.956     542.000     139.822
  H      350.761     541.456     142.240
  H      350.590     543.205     141.948
  P      349.374     544.490     137.490
  C      351.924     544.781     137.710
  O      350.639     545.363     137.936
  O      348.065     545.200     137.611
  O      349.686     544.143     135.953
  H      349.256     544.803     135.377
  H      352.685     545.454     138.047
  H      352.051     544.593     136.664
  H      351.998     543.860     138.250

 6  7  8  9  10  11  12  13  14  15  16  26  31  32  33  34  35 0
 6-311+G(2d,p)
 ****
 36  37 0
 6-311+G(2d,p)
 ****
 1  2  3  4  5  17  18  19  20  21  22  23  24  25 0
 3-21G
 ****
 27  28  29  30  38  39  40  41  42  43  44  45 0
 3-21G
 ****


