%nproc=1
%NoSave
%Mem=1900MB
#P OB98/GEN NMR

erre ene a

0 1
  C      286.994     131.668    -209.967
  O      285.736     131.448    -210.569
  H      286.867     131.894    -208.906
  H      287.595     130.760    -210.066
  H      287.521     132.494    -210.462
  P      284.760     132.715    -210.692
  C      283.778     132.563    -208.289
  O      284.597     133.288    -209.198
  C      283.182     133.506    -207.240
  O      284.270     134.132    -206.504
  C      282.323     134.627    -207.842
  O      281.199     134.855    -206.990
  C      283.248     135.833    -207.813
  O      282.532     137.062    -207.786
  C      284.070     135.556    -206.559
  N      286.429     139.976    -205.540
  C      285.167     139.551    -205.316
  N      284.619     138.353    -205.612
  C      285.536     137.535    -206.159
  C      286.857     137.824    -206.455
  C      287.302     139.117    -206.129
  N      288.575     139.573    -206.393
  N      287.473     136.739    -207.051
  C      286.533     135.811    -207.110
  N      285.347     136.247    -206.589
  O      283.341     132.032    -210.991
  O      285.130     133.721    -211.732
  H      281.967     137.110    -208.588
  H      283.290     131.787    -211.935
  H      284.507     140.271    -204.835
  H      286.660     134.819    -207.524
  H      283.554     135.874    -205.642
  H      283.888     135.828    -208.706
  H      281.975     134.398    -208.849
  H      282.610     132.910    -206.517
  H      284.388     131.799    -207.791
  H      288.792     140.534    -206.176
  H      289.220     138.971    -206.885
  H      282.969     132.071    -208.845
  P      279.752     134.505    -207.594
  C      278.887     136.952    -207.529
  O      279.174     135.814    -208.331
  O      278.829     134.363    -206.293
  O      279.729     133.259    -208.415
  H      278.317     133.536    -206.337
  H      278.513     137.740    -208.149
  H      279.781     137.278    -207.039
  H      278.151     136.695    -206.796

 6  7  8  9  10  11  12  13  14  15  25  28  32  33  34  35 0
 6-311+G(2d,p)
 ****
 36  39  40 0
 6-311+G(2d,p)
 ****
 1  2  3  4  5  16  17  18  19  20  21  22  23  24 0
 3-21G
 ****
 26  27  29  30  31  37  38  41  42  43  44  45  46  47 0
 3-21G
 ****
 48 0
 3-21G
 ****


