%nproc=1
%NoSave
%Mem=1900MB
#P OB98/GEN NMR

erre ene a

0 1
  C     1057.469    -422.316     408.882
  O     1058.571    -422.947     408.247
  H     1056.556    -422.903     408.656
  H     1057.330    -421.312     408.481
  H     1057.618    -422.299     409.953
  P     1060.000    -422.225     408.422
  C     1060.519    -423.839     410.396
  O     1060.961    -423.297     409.146
  C     1061.635    -424.666     411.037
  O     1061.885    -425.876     410.245
  C     1062.973    -423.955     411.171
  O     1062.995    -423.130     412.323
  C     1063.948    -425.132     411.261
  O     1063.975    -425.672     412.584
  C     1063.331    -426.126     410.263
  N     1067.594    -425.947     407.542
  C     1067.395    -426.082     408.893
  N     1068.518    -426.157     409.656
  N     1066.228    -426.151     409.475
  C     1065.209    -426.089     408.600
  C     1065.260    -425.923     407.214
  C     1066.560    -425.868     406.595
  O     1066.783    -425.828     405.401
  N     1063.993    -425.873     406.668
  C     1063.165    -425.938     407.724
  N     1063.869    -426.013     408.916
  O     1059.722    -421.141     409.584
  O     1060.550    -421.593     407.197
  H     1063.084    -425.918     412.825
  H     1060.304    -420.371     409.436
  H     1068.507    -425.906     407.172
  H     1062.089    -425.910     407.668
  H     1063.480    -427.167     410.594
  H     1064.955    -424.818     410.975
  H     1069.393    -425.756     409.326
  H     1063.187    -423.351     410.269
  H     1068.388    -426.229     410.674
  H     1061.289    -425.007     412.026
  H     1059.645    -424.485     410.221
  H     1060.228    -423.026     411.061
  P     1063.721    -421.701     412.202
  C     1061.581    -420.255     411.852
  O     1062.687    -420.605     412.715
  O     1063.793    -421.448     410.624
  O     1065.073    -421.639     412.836
  H     1064.447    -420.738     410.417
  H     1060.977    -419.512     412.329
  H     1060.989    -421.125     411.660
  H     1061.958    -419.869     410.928

 6  7  8  9  10  11  12  13  14  15  26  29  33  34 0
 6-311+G(2d,p)
 ****
 36  38  39  40  41 0
 6-311+G(2d,p)
 ****
 1  2  3  4  5  16  17  18  19  20  21  22  23  24  25 0
 3-21G
 ****
 27  28  30  31  32  35  37  42  43  44  45  46  47 0
 3-21G
 ****
 48  49 0
 3-21G
 ****


