%nproc=1
%NoSave
%Mem=1900MB
#P OB98/GEN NMR

erre ene a

0 1
  C     -104.659      -4.933     161.848
  O     -103.340      -4.613     161.433
  P     -103.067      -4.558     159.848
  C     -101.544      -6.680     159.875
  O     -101.664      -5.292     159.608
  C     -100.104      -7.126     159.643
  O      -99.680      -6.794     158.305
  C      -99.091      -6.479     160.583
  O      -99.072      -7.149     161.830
  C      -97.797      -6.627     159.783
  O      -97.248      -7.951     159.934
  C      -98.282      -6.392     158.346
  N      -95.130      -3.019     156.290
  C      -94.879      -4.288     156.774
  N      -93.614      -4.741     156.651
  N      -95.788      -5.051     157.325
  C      -97.007      -4.461     157.392
  C      -97.376      -3.204     156.967
  C      -96.372      -2.398     156.310
  O      -96.566      -1.309     155.776
  N      -98.697      -2.954     157.226
  C      -99.131      -4.065     157.786
  N      -98.152      -5.020     157.891
  O     -102.754      -3.013     159.591
  O     -104.185      -5.069     158.993
  H      -96.432      -8.023     159.412
  H     -103.545      -2.550     159.252
  H      -94.392      -2.487     155.856
  H     -100.146      -4.236     158.108
  H      -97.749      -7.021     157.622
  H      -97.026      -5.930     160.120
  H      -92.854      -4.200     156.260
  H      -99.318      -5.416     160.715
  H      -93.408      -5.668     157.001
  H     -100.068      -8.219     159.740
  H     -102.204      -7.234     159.200
  H     -101.851      -6.875     160.907
  P      -99.764      -6.415     163.077
  C      -97.412      -6.064     164.120
  O      -98.743      -6.502     164.306
  O     -100.948      -7.412     163.481
  O     -100.286      -5.049     162.774
  H     -101.724      -6.900     163.784
  H      -97.029      -5.691     165.074
  H      -97.349      -5.257     163.376
  H      -96.797      -6.901     163.794
  H     -104.706      -4.936     162.917
  H     -104.925      -5.900     161.476
  H     -105.341      -4.203     161.464

 3  4  5  6  7  8  9  10  11  12  23  26  30  31 0
 6-311+G(2d,p)
 ****
 33  35  36  37  38 0
 6-311+G(2d,p)
 ****
 1  2  13  14  15  16  17  18  19  20  21  22  24  25 0
 3-21G
 ****
 27  28  29  32  34  39  40  41  42  43  44  45  46  47  48  49 0
 3-21G
 ****


