%nproc=1
%NoSave
%Mem=1900MB
#P OB98/GEN NMR

erre ene a

0 1
  C      -60.571     -63.231      18.176
  O      -60.220     -62.868      19.495
  H      -61.012     -62.364      17.679
  H      -61.306     -64.040      18.188
  H      -59.682     -63.542      17.622
  P      -59.605     -64.021      20.425
  C      -57.167     -63.840      19.548
  O      -58.347     -64.626      19.634
  C      -55.984     -64.635      20.088
  O      -54.747     -63.974      19.737
  C      -55.960     -64.760      21.605
  O      -56.859     -65.747      22.076
  C      -54.504     -65.128      21.840
  O      -54.284     -66.538      21.673
  C      -53.775     -64.320      20.745
  N      -53.104     -63.143      21.286
  C      -51.715     -63.205      21.324
  O      -51.073     -64.179      20.933
  N      -51.082     -62.120      21.864
  C      -51.692     -61.020      22.393
  O      -51.070     -60.113      22.929
  C      -53.162     -61.003      22.312
  C      -53.792     -62.053      21.780
  O      -60.705     -65.181      20.337
  O      -59.325     -63.616      21.832
  H      -61.242     -65.191      21.150
  H      -53.381     -66.713      22.003
  H      -50.076     -62.150      21.910
  H      -53.678     -60.142      22.718
  H      -54.876     -62.072      21.728
  H      -53.019     -64.943      20.252
  H      -54.186     -64.877      22.851
  H      -56.158     -63.787      22.069
  H      -55.988     -65.627      19.618
  H      -57.289     -62.931      20.145
  H      -57.004     -63.557      18.503
  P      -57.215     -65.774      23.640
  C      -58.389     -63.426      23.556
  O      -57.370     -64.245      24.098
  O      -55.818     -66.230      24.268
  O      -58.374     -66.649      23.976
  H      -55.052     -65.870      23.791
  H      -58.326     -62.448      23.985
  H      -59.345     -63.852      23.778
  H      -58.266     -63.359      22.495

 6  7  8  9  10  11  12  13  14  15  16  27  31  32  33  34  35 0
 6-311+G(2d,p)
 ****
 36  37 0
 6-311+G(2d,p)
 ****
 1  2  3  4  5  17  18  19  20  21  22  23  24  25 0
 3-21G
 ****
 26  28  29  30  38  39  40  41  42  43  44  45 0
 3-21G
 ****


