%nproc=1
%NoSave
%Mem=1900MB
#P OB98/GEN NMR

erre ene a

0 1
  C      172.700      30.240     127.234
  O      173.719      29.420     126.699
  H      171.966      29.604     127.739
  H      172.200      30.787     126.428
  H      173.118      30.944     127.959
  P      174.988      30.160     126.061
  C      175.192      31.852     124.062
  O      174.543      30.715     124.620
  C      175.223      31.738     122.540
  O      175.969      30.579     122.118
  C      173.855      31.540     121.908
  O      173.056      32.702     121.958
  C      174.258      31.128     120.499
  O      174.630      32.268     119.713
  C      175.491      30.234     120.786
  N      175.192      28.815     120.671
  C      174.663      28.402     119.441
  O      174.491      29.218     118.533
  N      174.320      27.081     119.281
  C      174.510      26.242     120.252
  N      174.140      24.951     120.033
  C      175.088      26.630     121.554
  C      175.396      27.917     121.695
  O      175.955      28.942     125.689
  O      175.616      31.206     126.925
  H      173.886      32.901     119.778
  H      175.531      28.261     125.140
  H      175.236      25.895     122.332
  H      175.823      28.287     122.618
  H      176.308      30.470     120.089
  H      173.446      30.626     119.970
  H      173.343      30.689     122.373
  H      175.725      32.632     122.142
  H      173.729      24.726     119.136
  H      176.204      31.960     124.463
  H      174.209      24.218     120.727
  H      174.622      32.737     124.362
  P      171.472      32.592     122.183
  C      169.670      31.345     120.830
  O      170.846      32.147     120.772
  O      170.832      33.797     122.792
  O      171.316      31.259     123.059
  H      171.654      30.450     122.634
  H      169.348      31.112     119.837
  H      168.897      31.882     121.339
  H      169.882      30.439     121.358

 6  7  8  9  10  11  12  13  14  15  16  26  30  31  32  33  35 0
 6-311+G(2d,p)
 ****
 37  38 0
 6-311+G(2d,p)
 ****
 1  2  3  4  5  17  18  19  20  21  22  23  24  25 0
 3-21G
 ****
 27  28  29  34  36  39  40  41  42  43  44  45  46 0
 3-21G
 ****


