%nproc=1
%NoSave
%Mem=1900MB
#P OB98/GEN NMR

erre ene a

0 1
  C      142.851     -89.489     -50.528
  O      143.553     -88.302     -50.842
  P      145.053     -88.089     -50.326
  C      146.249     -87.140     -48.258
  O      144.995     -87.372     -48.892
  C      146.218     -85.826     -47.481
  O      145.994     -84.707     -48.369
  C      145.102     -85.741     -46.450
  O      145.361     -86.549     -45.319
  C      145.072     -84.241     -46.178
  O      146.108     -83.868     -45.258
  C      145.366     -83.667     -47.580
  N      144.173     -83.152     -48.233
  C      143.465     -82.168     -47.533
  O      143.810     -81.840     -46.399
  N      142.376     -81.591     -48.139
  C      141.959     -82.041     -49.281
  N      140.914     -81.390     -49.860
  C      142.584     -83.187     -49.973
  C      143.688     -83.674     -49.409
  O      145.979     -87.451     -51.307
  O      145.550     -89.568     -49.959
  H      146.416     -89.723     -50.384
  H      146.173     -82.893     -45.294
  H      142.157     -83.568     -50.889
  H      144.226     -84.502     -49.859
  H      146.107     -82.860     -47.511
  H      144.121     -83.916     -45.746
  H      144.155     -86.047     -46.909
  H      147.196     -85.693     -47.000
  H      140.524     -80.597     -49.365
  H      147.026     -87.095     -49.026
  H      140.726     -81.441     -50.858
  H      146.474     -87.978     -47.589
  P      144.098     -87.268     -44.638
  C      141.721     -86.444     -44.031
  O      143.088     -86.119     -44.166
  O      144.695     -87.837     -43.263
  O      143.486     -88.358     -45.456
  H      144.282     -88.695     -43.057
  H      141.243     -85.696     -43.391
  H      141.586     -87.431     -43.580
  H      141.241     -86.422     -45.014
  H      141.872     -89.448     -50.957
  H      142.771     -89.586     -49.465
  H      143.379     -90.331     -50.924

 3  4  5  6  7  8  9  10  11  12  13  24  27  28  29  30  32 0
 6-311+G(2d,p)
 ****
 34  35 0
 6-311+G(2d,p)
 ****
 1  2  14  15  16  17  18  19  20  21  22  23  25  26 0
 3-21G
 ****
 31  33  36  37  38  39  40  41  42  43  44  45  46 0
 3-21G
 ****


