%nproc=1
%NoSave
%Mem=1900MB
#P OB98/GEN NMR

erre ene a

0 1
  C     -312.501    -892.720      -5.762
  O     -311.395    -893.480      -6.204
  P     -309.974    -893.550      -5.472
  C     -309.708    -896.150      -5.613
  O     -309.823    -894.990      -4.796
  C     -309.268    -897.400      -4.814
  O     -307.962    -897.170      -4.241
  C     -310.214    -897.690      -3.669
  O     -311.433    -898.380      -3.882
  C     -309.347    -898.270      -2.574
  O     -309.348    -899.700      -2.587
  C     -307.947    -897.730      -2.926
  N     -306.817    -896.620       1.957
  C     -307.360    -897.790       1.425
  N     -307.695    -898.750       2.294
  N     -307.560    -897.960       0.145
  C     -307.279    -896.870      -0.614
  C     -306.752    -895.670      -0.199
  C     -306.448    -895.500       1.202
  O     -305.967    -894.500       1.717
  N     -306.607    -894.790      -1.256
  C     -307.064    -895.470      -2.301
  N     -307.473    -896.750      -1.952
  O     -309.636    -892.370      -4.619
  O     -308.916    -893.600      -6.706
  H     -308.866    -900.000      -1.801
  H     -308.110    -893.110      -6.382
  H     -306.633    -896.540       2.937
  H     -307.109    -895.080      -3.313
  H     -307.212    -898.540      -2.919
  H     -309.705    -897.970      -1.575
  H     -307.662    -898.630       3.290
  H     -310.548    -896.690      -3.271
  H     -308.290    -899.500       1.967
  H     -309.155    -898.260      -5.508
  H     -308.985    -895.930      -6.405
  H     -310.670    -896.350      -6.119
  P     -312.873    -897.740      -4.251
  C     -312.277    -898.850      -6.458
  O     -313.076    -897.900      -5.824
  O     -312.635    -896.160      -4.063
  O     -314.003    -898.210      -3.389
  H     -313.494    -895.690      -4.011
  H     -312.300    -898.660      -7.541
  H     -312.671    -899.850      -6.272
  H     -311.245    -898.790      -6.115
  H     -313.320    -892.856      -6.437
  H     -312.233    -891.685      -5.731
  H     -312.788    -893.044      -4.783

 3  4  5  6  7  8  9  10  11  12  23  26  30  31 0
 6-311+G(2d,p)
 ****
 33  35  36  37  38 0
 6-311+G(2d,p)
 ****
 1  2  13  14  15  16  17  18  19  20  21  22  24  25 0
 3-21G
 ****
 27  28  29  32  34  39  40  41  42  43  44  45  46  47  48  49 0
 3-21G
 ****


