%nproc=1
%NoSave
%Mem=1900MB
#P OB98/GEN NMR

erre ene a

0 1
  C      572.795     640.941    -176.945
  O      572.211     640.566    -178.179
  H      572.986     642.015    -176.965
  H      573.740     640.417    -176.804
  H      572.109     640.725    -176.114
  P      571.732     639.047    -178.381
  C      569.193     639.447    -178.501
  O      570.365     639.104    -179.226
  C      567.988     639.552    -179.434
  O      568.177     640.682    -180.321
  C      567.779     638.309    -180.303
  O      566.373     638.075    -180.437
  C      568.361     638.710    -181.649
  O      567.771     637.989    -182.736
  C      568.069     640.208    -181.682
  N      569.283     641.078    -186.507
  C      568.224     640.359    -185.968
  N      567.383     639.764    -186.842
  N      568.024     640.236    -184.681
  C      568.934     640.892    -183.924
  C      570.015     641.636    -184.337
  C      570.247     641.753    -185.766
  O      571.173     642.355    -186.311
  N      570.729     642.119    -183.272
  C      570.064     641.680    -182.207
  N      568.986     640.919    -182.561
  O      571.648     638.229    -177.127
  O      572.779     638.443    -179.424
  H      568.249     638.264    -183.554
  H      573.457     637.909    -178.962
  H      569.397     641.140    -187.510
  H      570.344     641.869    -181.178
  H      567.046     640.429    -182.036
  H      569.440     638.521    -181.651
  H      567.478     639.833    -187.840
  H      568.264     637.414    -179.896
  H      566.591     639.255    -186.470
  H      567.101     639.760    -178.831
  H      569.363     640.416    -178.008
  H      569.003     638.687    -177.724
  P      565.876     636.644    -180.963
  C      565.085     635.578    -178.752
  O      564.695     636.141    -179.999
  O      566.947     635.634    -181.223
  O      565.083     637.014    -182.310
  H      565.158     636.268    -182.933
  H      564.214     635.284    -178.205
  H      565.631     636.305    -178.188
  H      565.704     634.722    -178.925

 6  7  8  9  10  11  12  13  14  15  26  29  33  34 0
 6-311+G(2d,p)
 ****
 36  38  39  40  41 0
 6-311+G(2d,p)
 ****
 1  2  3  4  5  16  17  18  19  20  21  22  23  24  25 0
 3-21G
 ****
 27  28  30  31  32  35  37  42  43  44  45  46  47 0
 3-21G
 ****
 48  49 0
 3-21G
 ****


