%nproc=1
%NoSave
%Mem=1900MB
#P OB98/GEN NMR

erre ene a

0 1
  C      108.268     226.546     623.443
  O      107.168     227.240     624.012
  P      105.850     226.453     624.495
  C      105.282     226.179     621.986
  O      105.443     225.534     623.248
  C      103.821     226.098     621.543
  O      103.356     224.743     621.637
  C      102.863     226.929     622.388
  O      102.959     228.310     622.071
  C      101.530     226.259     622.046
  O      101.048     226.734     620.782
  C      101.945     224.781     621.930
  N      101.627     224.006     623.133
  C      100.278     223.924     623.490
  O       99.409     224.484     622.815
  N       99.927     223.189     624.594
  C      100.856     222.600     625.301
  N      100.449     221.831     626.342
  C      102.297     222.707     624.989
  C      102.607     223.409     623.900
  O      104.761     227.324     625.018
  O      106.385     225.386     625.554
  H      101.804     226.684     620.158
  H      106.430     225.731     626.480
  H      103.024     222.212     625.616
  H      103.635     223.519     623.595
  H      101.444     224.314     621.071
  H      100.752     226.437     622.794
  H      103.083     226.787     623.459
  H      103.770     226.409     620.493
  H       99.453     221.645     626.418
  H      105.907     225.659     621.249
  H      101.053     221.126     626.749
  H      105.616     227.219     622.064
  P      103.044     229.340     623.295
  C      100.539     230.026     623.349
  O      101.597     229.327     623.992
  O      103.112     230.766     622.564
  O      104.195     229.117     624.214
  H      104.032     231.104     622.548
  H       99.590     229.718     623.806
  H      100.508     229.784     622.281
  H      100.665     231.101     623.488
  H      109.038     227.244     623.190
  H      107.948     226.033     622.560
  H      108.647     225.838     624.150

 3  4  5  6  7  8  9  10  11  12  13  23  27  28  29  30  32 0
 6-311+G(2d,p)
 ****
 34  35 0
 6-311+G(2d,p)
 ****
 1  2  14  15  16  17  18  19  20  21  22  24  25  26 0
 3-21G
 ****
 31  33  36  37  38  39  40  41  42  43  44  45  46 0
 3-21G
 ****


