%nproc=1
%NoSave
%Mem=1900MB
#P OB98/GEN NMR

erre ene a

0 1
  C      -10.543      65.853     -75.428
  O       -9.803      64.747     -74.950
  H      -11.542      65.526     -75.721
  H      -10.635      66.587     -74.623
  H      -10.038      66.322     -76.276
  P       -9.286      63.686     -76.036
  C       -9.149      61.571     -74.537
  O       -8.437      62.588     -75.226
  C       -8.224      60.831     -73.573
  O       -7.903      61.718     -72.464
  C       -8.823      59.543     -72.985
  O       -7.787      58.559     -72.897
  C       -9.231      59.958     -71.582
  O       -9.273      58.862     -70.675
  C       -8.154      60.988     -71.251
  N       -9.900      61.062     -66.477
  C       -9.287      60.100     -67.198
  N       -8.804      60.181     -68.454
  C       -8.939      61.427     -68.937
  C       -9.536      62.513     -68.319
  C      -10.050      62.289     -67.030
  N      -10.735      63.243     -66.313
  N       -9.534      63.608     -69.161
  C       -8.973      63.182     -70.274
  N       -8.598      61.871     -70.188
  O       -8.168      64.519     -76.825
  O      -10.330      63.142     -76.953
  H       -9.318      59.209     -69.762
  H       -8.583      65.013     -77.556
  H       -9.183      59.135     -66.709
  H       -8.841      63.765     -71.176
  H       -7.213      60.524     -70.926
  H      -10.223      60.422     -71.612
  H       -9.664      59.143     -73.563
  H       -7.282      60.614     -74.092
  H       -9.548      60.857     -75.265
  H      -11.162      62.960     -65.443
  H      -10.952      64.126     -66.754
  H       -9.985      62.021     -73.993
  P       -8.152      57.061     -73.334
  C       -6.872      55.951     -71.355
  O       -7.025      56.076     -72.766
  O       -7.882      57.062     -74.912
  O       -9.558      56.663     -73.016
  H       -8.500      56.460     -75.360
  H       -6.083      55.260     -71.142
  H       -7.785      55.593     -70.928
  H       -6.633      56.906     -70.936

 6  7  8  9  10  11  12  13  14  15  25  28  32  33  34  35 0
 6-311+G(2d,p)
 ****
 36  39  40 0
 6-311+G(2d,p)
 ****
 1  2  3  4  5  16  17  18  19  20  21  22  23  24 0
 3-21G
 ****
 26  27  29  30  31  37  38  41  42  43  44  45  46  47 0
 3-21G
 ****
 48 0
 3-21G
 ****


