%nproc=1
%NoSave
%Mem=1900MB
#P OB98/GEN NMR

erre ene a

0 1
  C     -160.116    -130.711     -91.974
  O     -160.140    -129.443     -91.350
  H     -159.088    -130.939     -92.268
  H     -160.744    -130.708     -92.868
  H     -160.463    -131.478     -91.277
  P     -161.577    -128.868     -90.932
  C     -160.892    -126.778     -92.316
  O     -161.925    -127.690     -91.961
  C     -160.956    -126.495     -93.814
  O     -160.938    -127.742     -94.550
  C     -162.226    -125.783     -94.258
  O     -162.194    -124.390     -93.996
  C     -162.225    -126.092     -95.745
  O     -161.412    -125.166     -96.479
  C     -161.633    -127.512     -95.792
  N     -162.662    -128.519     -96.041
  C     -163.500    -128.270     -97.124
  O     -163.400    -127.277     -97.842
  N     -164.491    -129.189     -97.335
  C     -164.751    -130.277     -96.556
  O     -165.692    -131.031     -96.769
  C     -163.844    -130.481     -95.415
  C     -162.858    -129.603     -95.209
  O     -161.279    -128.102     -89.560
  O     -162.647    -129.899     -90.776
  H     -161.631    -128.617     -88.811
  H     -161.616    -125.318     -97.423
  H     -165.108    -129.028     -98.116
  H     -164.022    -131.335     -94.774
  H     -162.182    -129.725     -94.369
  H     -160.883    -127.589     -96.589
  H     -163.229    -126.034     -96.155
  H     -163.105    -126.252     -93.797
  H     -160.069    -125.915     -94.098
  H     -159.918    -127.216     -92.080
  H     -161.014    -125.858     -91.737
  P     -163.276    -123.797     -92.969
  C     -164.213    -122.394     -94.988
  O     -164.471    -123.233     -93.874
  O     -162.506    -122.495     -92.451
  O     -163.667    -124.767     -91.906
  H     -161.875    -122.160     -93.113
  H     -165.138    -122.128     -95.456
  H     -163.594    -122.913     -95.690
  H     -163.712    -121.508     -94.659

 6  7  8  9  10  11  12  13  14  15  16  27  31  32  33  34  35 0
 6-311+G(2d,p)
 ****
 36  37 0
 6-311+G(2d,p)
 ****
 1  2  3  4  5  17  18  19  20  21  22  23  24  25 0
 3-21G
 ****
 26  28  29  30  38  39  40  41  42  43  44  45 0
 3-21G
 ****


