%nproc=1
%NoSave
%Mem=1900MB
#P OB98/GEN NMR

erre ene a

0 1
  C      163.359      91.617      42.661
  O      162.390      92.451      42.058
  H      162.994      90.588      42.646
  H      163.518      91.917      43.700
  H      164.304      91.660      42.112
  P      162.761      93.983      41.767
  C      161.562      94.896      43.861
  O      162.803      94.727      43.187
  C      161.772      95.699      45.142
  O      162.897      95.177      45.880
  C      162.079      97.174      44.907
  O      160.905      97.885      44.556
  C      162.680      97.555      46.253
  O      161.652      97.788      47.225
  C      163.491      96.283      46.598
  N      164.913      96.405      46.288
  C      165.793      96.315      47.360
  O      165.417      96.180      48.527
  N      167.128      96.404      47.054
  C      167.647      96.654      45.817
  O      168.850      96.776      45.603
  C      166.670      96.773      44.724
  C      165.371      96.644      45.005
  O      161.936      94.665      40.726
  O      164.305      93.923      41.348
  H      162.095      97.819      48.097
  H      164.384      93.971      40.376
  H      167.777      96.353      47.823
  H      167.047      96.978      43.732
  H      164.634      96.737      44.214
  H      163.393      96.050      47.666
  H      163.279      98.467      46.202
  H      162.849      97.285      44.133
  H      160.875      95.582      45.769
  H      161.160      93.908      44.113
  H      160.862      95.406      43.192
  P      160.951      99.043      43.455
  C      161.456     100.816      45.234
  O      161.891     100.217      44.022
  O      159.620      99.502      42.956
  O      161.828      98.417      42.268
  H      161.248      98.180      41.517
  H      162.147     101.580      45.523
  H      161.406     100.072      46.001
  H      160.487     101.247      45.091

 6  7  8  9  10  11  12  13  14  15  16  26  31  32  33  34  35 0
 6-311+G(2d,p)
 ****
 36  37 0
 6-311+G(2d,p)
 ****
 1  2  3  4  5  17  18  19  20  21  22  23  24  25 0
 3-21G
 ****
 27  28  29  30  38  39  40  41  42  43  44  45 0
 3-21G
 ****


