%nproc=1
%NoSave
%Mem=1900MB
#P OB98/GEN NMR

erre ene a

0 1
  C      424.734    -258.182      26.156
  O      423.531    -258.726      26.713
  P      423.555    -260.237      27.252
  C      423.282    -259.372      29.673
  O      422.815    -260.280      28.673
  C      422.465    -259.521      30.975
  O      421.225    -258.785      30.844
  C      422.056    -260.959      31.303
  O      422.946    -261.758      32.086
  C      420.826    -260.725      32.172
  O      421.218    -260.455      33.526
  C      420.181    -259.481      31.568
  N      415.793    -262.078      31.066
  C      416.669    -261.964      32.090
  N      417.809    -261.249      32.139
  C      418.031    -260.595      30.990
  C      417.218    -260.604      29.855
  C      416.056    -261.399      29.918
  N      415.164    -261.525      28.875
  N      417.761    -259.822      28.859
  C      418.882    -259.348      29.381
  N      419.079    -259.775      30.669
  O      424.882    -260.932      27.192
  O      422.489    -260.968      26.296
  H      421.688    -261.248      33.843
  H      422.811    -261.869      26.098
  H      416.413    -262.524      32.987
  H      419.574    -258.703      28.862
  H      419.795    -258.783      32.327
  H      420.164    -261.607      32.215
  H      421.772    -261.513      30.396
  H      423.035    -259.095      31.806
  H      423.181    -258.342      29.299
  H      414.389    -262.137      28.979
  H      415.374    -261.067      27.986
  H      424.344    -259.558      29.816
  P      423.412    -263.220      31.593
  C      425.756    -262.482      30.706
  O      425.017    -263.204      31.656
  O      422.851    -263.658      30.274
  O      423.005    -264.141      32.830
  H      423.530    -263.993      33.636
  H      426.800    -262.423      31.047
  H      425.380    -261.463      30.589
  H      425.738    -262.998      29.741
  H      424.558    -257.174      25.844
  H      425.034    -258.769      25.313
  H      425.508    -258.197      26.895

 3  4  5  6  7  8  9  10  11  12  22  25  29  30  31  32 0
 6-311+G(2d,p)
 ****
 33  36  37 0
 6-311+G(2d,p)
 ****
 1  2  13  14  15  16  17  18  19  20  21  23  24  26 0
 3-21G
 ****
 27  28  34  35  38  39  40  41  42  43  44  45  46  47  48 0
 3-21G
 ****


