%nproc=1
%NoSave
%Mem=1900MB
#P OB98/GEN NMR

erre ene a

0 1
  C     -895.359     291.730    -568.258
  O     -895.429     292.027    -569.636
  H     -896.129     290.982    -568.022
  H     -895.569     292.634    -567.674
  H     -894.379     291.334    -567.992
  P     -894.289     292.988    -570.239
  C     -895.099     295.190    -569.110
  O     -894.929     294.459    -570.314
  C     -894.919     296.687    -569.360
  O     -893.549     296.948    -569.753
  C     -895.829     297.235    -570.466
  O     -896.289     298.546    -570.085
  C     -894.909     297.349    -571.668
  O     -895.359     298.328    -572.605
  C     -893.569     297.661    -571.000
  N     -892.439     297.290    -571.857
  C     -891.839     298.318    -572.571
  O     -892.249     299.478    -572.490
  N     -890.809     298.017    -573.431
  C     -890.479     296.770    -573.627
  N     -889.474     296.532    -574.510
  C     -891.139     295.642    -572.934
  C     -892.099     295.967    -572.065
  O     -894.209     292.545    -571.783
  O     -892.969     292.922    -569.556
  H     -894.759     298.314    -573.377
  H     -893.309     292.654    -572.127
  H     -890.829     294.620    -573.150
  H     -892.639     295.209    -571.531
  H     -893.489     298.729    -570.775
  H     -894.869     296.378    -572.185
  H     -896.709     296.604    -570.666
  H     -895.089     297.222    -568.420
  H     -889.049     297.327    -574.974
  H     -894.339     294.858    -568.395
  H     -889.163     295.604    -574.757
  H     -896.089     294.977    -568.694
  P     -897.489     298.612    -569.041
  C     -899.319     299.293    -570.760
  O     -898.579     299.657    -569.597
  O     -896.859     299.362    -567.774
  O     -898.039     297.266    -568.658
  H     -896.709     298.739    -567.044
  H     -900.000     300.079    -571.010
  H     -899.867     298.394    -570.567
  H     -898.645     299.132    -571.576

 6  7  8  9  10  11  12  13  14  15  16  26  30  31  32  33  35 0
 6-311+G(2d,p)
 ****
 37  38 0
 6-311+G(2d,p)
 ****
 1  2  3  4  5  17  18  19  20  21  22  23  24  25 0
 3-21G
 ****
 27  28  29  34  36  39  40  41  42  43  44  45  46 0
 3-21G
 ****


