%nproc=1
%NoSave
%Mem=1900MB
#P OB98/GEN NMR

erre ene a

0 1
  C      -63.645     -11.789      82.513
  O      -62.324     -11.287      82.511
  H      -63.702     -12.705      81.917
  H      -63.935     -12.022      83.541
  H      -64.335     -11.041      82.111
  P      -61.693     -10.916      81.083
  C      -60.520     -13.239      81.067
  O      -61.372     -12.327      80.387
  C      -60.333     -14.487      80.212
  O      -61.618     -15.072      79.900
  C      -59.663     -14.218      78.869
  O      -58.251     -14.144      78.970
  C      -60.096     -15.446      78.086
  O      -59.310     -16.582      78.488
  C      -61.551     -15.612      78.551
  N      -63.366     -15.091      73.792
  C      -62.440     -15.921      74.319
  N      -62.029     -16.012      75.600
  C      -62.686     -15.134      76.373
  C      -63.660     -14.229      75.981
  C      -63.998     -14.222      74.617
  N      -64.919     -13.355      74.071
  N      -64.087     -13.477      77.058
  C      -63.396     -13.935      78.083
  N      -62.512     -14.913      77.713
  O      -60.238     -10.354      81.444
  O      -62.491      -9.978      80.240
  H      -58.408     -16.441      78.143
  H      -59.852      -9.892      80.675
  H      -61.965     -16.600      73.617
  H      -63.490     -13.586      79.103
  H      -61.862     -16.662      78.597
  H      -59.962     -15.328      77.008
  H      -60.074     -13.324      78.387
  H      -59.765     -15.224      80.795
  H      -60.979     -13.512      82.023
  H      -64.983     -13.325      73.065
  H      -65.283     -12.609      74.645
  H      -59.553     -12.762      81.255
  P      -57.503     -13.023      78.094
  C      -56.436     -14.943      76.707
  O      -57.146     -13.711      76.688
  O      -56.081     -12.897      78.816
  O      -58.219     -11.715      78.017
  H      -55.737     -11.985      78.749
  H      -56.272     -15.276      75.703
  H      -57.008     -15.676      77.237
  H      -55.494     -14.804      77.195

 6  7  8  9  10  11  12  13  14  15  25  28  32  33  34  35 0
 6-311+G(2d,p)
 ****
 36  39  40 0
 6-311+G(2d,p)
 ****
 1  2  3  4  5  16  17  18  19  20  21  22  23  24 0
 3-21G
 ****
 26  27  29  30  31  37  38  41  42  43  44  45  46  47 0
 3-21G
 ****
 48 0
 3-21G
 ****


