%nproc=1
%NoSave
%Mem=1900MB
#P OB98/GEN NMR

erre ene a

0 1
  C     -105.683    -247.913    -136.519
  O     -106.794    -247.522    -137.301
  H     -106.046    -248.336    -135.578
  H     -105.058    -247.043    -136.294
  H     -105.094    -248.670    -137.043
  P     -106.475    -246.911    -138.749
  C     -107.384    -244.558    -138.112
  O     -107.503    -245.695    -138.959
  C     -108.656    -243.722    -138.189
  O     -108.775    -243.144    -139.508
  C     -109.941    -244.516    -137.973
  O     -110.186    -244.765    -136.599
  C     -110.969    -243.596    -138.616
  O     -111.389    -242.562    -137.714
  C     -110.184    -242.983    -139.783
  N     -114.018    -244.153    -142.932
  C     -113.982    -243.470    -141.765
  N     -112.912    -243.186    -140.994
  C     -111.788    -243.676    -141.546
  C     -111.673    -244.396    -142.724
  C     -112.859    -244.632    -143.438
  N     -112.901    -245.356    -144.605
  N     -110.360    -244.768    -142.934
  C     -109.695    -244.275    -141.911
  N     -110.517    -243.604    -141.050
  O     -107.020    -248.044    -139.743
  O     -105.042    -246.586    -139.003
  H     -111.956    -241.955    -138.231
  H     -106.286    -248.633    -140.000
  H     -114.941    -243.110    -141.401
  H     -108.630    -244.384    -141.742
  H     -110.371    -241.909    -139.888
  H     -111.862    -244.148    -138.917
  H     -109.904    -245.456    -138.537
  H     -108.580    -242.901    -137.462
  H     -106.533    -243.951    -138.441
  H     -107.204    -244.897    -137.085
  H     -113.791    -245.506    -145.050
  H     -112.057    -245.806    -144.932
  P     -110.334    -246.284    -136.112
  C     -111.917    -246.084    -134.060
  O     -110.589    -246.263    -134.528
  O     -108.846    -246.857    -136.248
  O     -111.318    -247.092    -136.886
  H     -108.756    -247.380    -137.067
  H     -111.922    -246.093    -132.990
  H     -112.534    -246.878    -134.426
  H     -112.296    -245.147    -134.411

 6  7  8  9  10  11  12  13  14  15  25  28  32  33  34  35 0
 6-311+G(2d,p)
 ****
 36  37  40 0
 6-311+G(2d,p)
 ****
 1  2  3  4  5  16  17  18  19  20  21  22  23  24 0
 3-21G
 ****
 26  27  29  30  31  38  39 41  42  43  44  45  46  47  48 0
 3-21G
 ****


