%nproc=1
%NoSave
%Mem=1900MB
#P OB98/GEN NMR

erre ene a

0 1
  C       27.065     -28.987      32.688
  O       26.125     -29.696      33.495
  P       24.565     -29.588      33.139
  C       24.194     -31.458      31.404
  O       24.035     -31.055      32.761
  C       23.015     -32.317      30.952
  O       23.120     -32.678      29.560
  C       22.907     -33.634      31.702
  O       22.413     -33.432      33.015
  C       21.997     -34.431      30.782
  O       20.617     -34.100      31.007
  C       22.437     -33.939      29.385
  N       23.265     -34.899      28.670
  C       22.580     -35.834      27.886
  O       21.350     -35.841      27.858
  N       23.311     -36.748      27.165
  C       24.607     -36.734      27.232
  N       25.279     -37.658      26.495
  C       25.364     -35.772      28.056
  C       24.636     -34.897      28.748
  O       24.196     -28.509      32.175
  O       23.891     -29.337      34.574
  H       20.109     -34.587      30.327
  H       23.080     -28.804      34.452
  H       26.444     -35.796      28.072
  H       25.113     -34.158      29.383
  H       21.557     -33.729      28.762
  H       22.100     -35.509      30.940
  H       23.895     -34.114      31.751
  H       22.093     -31.734      31.091
  H       24.735     -38.314      25.947
  H       25.127     -32.018      31.298
  H       26.287     -37.696      26.440
  H       24.293     -30.563      30.780
  P       23.150     -34.197      34.215
  C       25.501     -33.127      34.445
  O       24.163     -33.167      34.903
  O       24.123     -35.215      33.447
  O       22.238     -34.924      35.149
  H       24.209     -36.037      33.963
  H       25.956     -32.190      34.777
  H       25.551     -33.174      33.355
  H       26.060     -33.962      34.874
  H       28.054     -29.163      33.055
  H       26.851     -27.939      32.728
  H       26.995     -29.327      31.676

 3  4  5  6  7  8  9  10  11  12  13  23  27  28  29  30  32 0
 6-311+G(2d,p)
 ****
 34  35 0
 6-311+G(2d,p)
 ****
 1  2  14  15  16  17  18  19  20  21  22  24  25  26 0
 3-21G
 ****
 31  33  36  37  38  39  40  41  42  43  44  45  46 0
 3-21G
 ****


