%nproc=1
%NoSave
%Mem=1900MB
#P OB98/GEN NMR

erre ene a

0 1
  C      -58.469     -82.038     -19.690
  O      -57.934     -82.550     -18.486
  H      -59.076     -81.159     -19.456
  H      -59.105     -82.782     -20.176
  H      -57.664     -81.737     -20.366
  P      -57.065     -83.893     -18.547
  C      -54.837     -82.831     -19.320
  O      -55.944     -83.656     -19.667
  C      -53.527     -83.472     -19.774
  O      -52.426     -82.566     -19.563
  C      -53.165     -84.748     -19.022
  O      -53.962     -85.829     -19.462
  C      -51.684     -84.852     -19.347
  O      -51.483     -85.373     -20.670
  C      -51.254     -83.366     -19.275
  N      -50.673     -82.990     -17.991
  C      -49.362     -83.420     -17.760
  O      -48.769     -84.088     -18.606
  N      -48.768     -83.095     -16.564
  C      -49.404     -82.370     -15.699
  N      -48.758     -82.079     -14.539
  C      -50.773     -81.868     -15.919
  C      -51.346     -82.221     -17.068
  O      -57.832     -85.170     -18.702
  O      -56.225     -83.872     -17.185
  H      -50.518     -85.355     -20.825
  H      -56.687     -84.378     -16.490
  H      -51.263     -81.258     -15.173
  H      -52.353     -81.893     -17.308
  H      -50.519     -83.142     -20.059
  H      -51.154     -85.510     -18.660
  H      -53.271     -84.595     -17.943
  H      -53.598     -83.658     -20.853
  H      -47.810     -82.430     -14.442
  H      -54.845     -82.723     -18.231
  H      -49.087     -81.397     -13.872
  H      -54.942     -81.836     -19.766
  P      -53.755     -87.312     -18.889
  C      -55.825     -87.369     -17.366
  O      -54.408     -87.308     -17.423
  O      -52.357     -87.827     -18.953
  O      -54.797     -88.188     -19.728
  H      -54.446     -88.365     -20.637
  H      -56.142     -87.360     -16.344
  H      -56.162     -88.269     -17.836
  H      -56.239     -86.524     -17.875

 6  7  8  9  10  11  12  13  14  15  16  26  30  31  32  33  35 0
 6-311+G(2d,p)
 ****
 37  38 0
 6-311+G(2d,p)
 ****
 1  2  3  4  5  17  18  19  20  21  22  23  24  25 0
 3-21G
 ****
 27  28  29  34  36  39  40  41  42  43  44  45  46 0
 3-21G
 ****


