%nproc=1
%NoSave
%Mem=1900MB
#P OB98/GEN NMR

erre ene a

0 1
  C      281.211     397.672    -476.549
  O      281.168     398.601    -477.618
  H      282.182     397.165    -476.531
  H      281.078     398.213    -475.608
  H      280.405     396.938    -476.654
  P      281.316     397.996    -479.097
  C      283.310     399.546    -479.701
  O      281.973     399.156    -479.992
  C      283.564     400.964    -480.210
  O      283.387     401.013    -481.638
  C      282.627     402.025    -479.640
  O      283.023     402.434    -478.340
  C      282.811     403.140    -480.661
  O      284.037     403.845    -480.389
  C      282.931     402.357    -481.974
  N      280.262     404.146    -485.957
  C      281.525     404.391    -485.532
  N      282.169     403.858    -484.476
  C      281.387     402.970    -483.836
  C      280.094     402.602    -484.160
  C      279.522     403.239    -485.280
  N      278.205     403.029    -485.663
  N      279.609     401.674    -483.261
  C      280.586     401.504    -482.397
  N      281.683     402.259    -482.710
  O      279.797     397.931    -479.609
  O      281.980     396.663    -479.175
  H      284.119     404.539    -481.072
  H      279.449     397.031    -479.474
  H      282.086     405.113    -486.117
  H      280.544     400.851    -481.539
  H      283.682     402.789    -482.649
  H      282.001     403.874    -480.643
  H      281.581     401.697    -479.662
  H      284.615     401.213    -479.999
  H      284.004     398.856    -480.186
  H      277.786     403.827    -486.130
  H      277.636     402.555    -484.973
  H      283.458     399.500    -478.616
  P      281.872     402.696    -477.253
  C      282.558     405.184    -477.441
  O      282.194     404.113    -476.578
  O      282.216     401.639    -476.112
  O      280.470     402.518    -477.755
  H      281.445     401.064    -475.939
  H      282.743     406.063    -476.860
  H      281.762     405.373    -478.130
  H      283.443     404.921    -477.982

 6  7  8  9  10  11  12  13  14  15  25  28  32  33  34  35 0
 6-311+G(2d,p)
 ****
 36  39  40 0
 6-311+G(2d,p)
 ****
 1  2  3  4  5  16  17  18  19  20  21  22  23  24 0
 3-21G
 ****
 26  27  29  30  31  37  38  41  42  43  44  45  46  47  48 0
 3-21G
 ****


