%nproc=1
%NoSave
%Mem=1900MB
#P OB98/GEN NMR

erre ene a

0 1
  C       72.621     837.155     248.926
  O       73.097     837.995     249.962
  H       72.984     837.532     247.968
  H       71.527     837.166     248.917
  H       72.983     836.130     249.072
  P       72.818     837.527     251.468
  C       71.752     839.757     252.356
  O       71.582     838.389     252.011
  C       71.280     840.006     253.791
  O       69.898     839.629     253.943
  C       72.009     839.172     254.823
  O       73.343     839.591     255.036
  C       71.102     839.377     256.033
  O       71.344     840.650     256.653
  C       69.707     839.348     255.369
  N       69.005     838.092     255.581
  C       68.132     838.058     256.676
  O       67.991     839.052     257.388
  N       67.477     836.890     256.968
  C       67.651     835.849     256.203
  N       66.972     834.710     256.534
  C       68.539     835.848     255.022
  C       69.181     836.992     254.773
  O       74.057     838.146     252.261
  O       72.639     836.053     251.655
  H       72.271     840.644     256.947
  H       74.173     839.110     252.121
  H       68.645     834.961     254.409
  H       69.841     837.073     253.927
  H       69.069     840.167     255.761
  H       71.256     838.618     256.805
  H       71.972     838.108     254.559
  H       71.374     841.074     254.000
  H       66.394     834.742     257.367
  H       71.224     840.410     251.654
  H       67.055     833.841     256.043
  H       72.819     839.990     252.276
  P       74.457     838.564     255.550
  C       74.818     839.958     257.691
  O       74.461     838.680     257.157
  O       75.792     838.691     254.909
  O       73.753     837.125     255.334
  H       72.922     837.009     255.820
  H       74.787     839.919     258.760
  H       74.127     840.696     257.341
  H       75.806     840.215     257.372

 6  7  8  9  10  11  12  13  14  15  16  26  30  31  32  33  35 0
 6-311+G(2d,p)
 ****
 37  38 0
 6-311+G(2d,p)
 ****
 1  2  3  4  5  17  18  19  20  21  22  23  24  25 0
 3-21G
 ****
 27  28  29  34  36  39  40  41  42  43  44  45  46 0
 3-21G
 ****


