%nproc=1
%NoSave
%Mem=1900MB
#P OB98/GEN NMR

erre ene a

0 1
  C      178.114    -333.464    -501.647
  O      178.619    -332.148    -501.693
  H      177.607    -333.681    -502.592
  H      177.388    -333.556    -500.831
  H      178.920    -334.187    -501.508
  P      179.579    -331.697    -500.487
  C      177.914    -331.943    -498.509
  O      178.629    -331.061    -499.363
  C      177.628    -331.266    -497.171
  O      178.845    -331.133    -496.406
  C      177.041    -329.861    -497.285
  O      175.636    -329.896    -497.501
  C      177.376    -329.306    -495.911
  O      176.453    -329.834    -494.935
  C      178.780    -329.874    -495.673
  N      181.446    -325.686    -494.630
  C      180.398    -326.268    -493.941
  N      179.995    -325.634    -492.820
  N      179.792    -327.366    -494.319
  C      180.296    -327.880    -495.464
  C      181.330    -327.400    -496.239
  C      181.992    -326.192    -495.807
  O      182.944    -325.651    -496.366
  N      181.558    -328.203    -497.328
  C      180.651    -329.153    -497.226
  N      179.849    -329.000    -496.117
  O      180.354    -330.426    -501.078
  O      180.532    -332.736    -500.009
  H      175.554    -329.626    -495.251
  H      181.266    -330.424    -500.737
  H      181.865    -324.834    -494.308
  H      180.534    -329.976    -497.921
  H      178.967    -330.101    -494.615
  H      177.301    -328.219    -495.870
  H      180.383    -324.759    -492.497
  H      177.557    -329.272    -498.054
  H      179.250    -326.056    -492.277
  H      176.953    -331.924    -496.595
  H      178.514    -332.845    -498.337
  H      176.973    -332.226    -498.995
  P      174.998    -328.739    -498.419
  C      176.028    -326.896    -496.903
  O      174.844    -327.461    -497.452
  O      173.487    -329.233    -498.622
  O      175.696    -328.506    -499.716
  H      173.112    -328.828    -499.428
  H      175.771    -326.060    -496.286
  H      176.669    -326.571    -497.696
  H      176.535    -327.632    -496.314

 6  7  8  9  10  11  12  13  14  15  26  29  33  34 0
 6-311+G(2d,p)
 ****
 36  38  39  40  41 0
 6-311+G(2d,p)
 ****
 1  2  3  4  5  16  17  18  19  20  21  22  23  24  25 0
 3-21G
 ****
 27  28  30  31  32  35  37  42  43  44  45  46  47 0
 3-21G
 ****
 48  49 0
 3-21G
 ****


