%nproc=1
%NoSave
%Mem=1900MB
#P OB98/GEN NMR

erre ene a

0 1
  C     -276.571     974.126    -201.894
  O     -275.329     973.425    -201.969
  P     -274.129     973.899    -201.020
  C     -272.142     975.584    -201.245
  O     -273.422     975.151    -201.719
  C     -271.392     976.328    -202.345
  O     -270.958     975.378    -203.360
  C     -272.192     977.409    -203.048
  O     -271.293     978.471    -203.417
  C     -272.678     976.717    -204.312
  O     -273.075     977.608    -205.341
  C     -271.439     975.875    -204.637
  N     -271.712     974.791    -205.586
  C     -271.596     975.073    -206.930
  O     -271.279     976.182    -207.398
  N     -271.920     974.058    -207.798
  C     -272.418     972.846    -207.432
  O     -272.819     972.009    -208.255
  C     -272.524     972.593    -205.992
  C     -272.163     973.557    -205.128
  O     -273.041     972.723    -201.171
  O     -274.508     974.119    -199.587
  H     -273.477     977.083    -206.049
  H     -273.093     972.122    -200.417
  H     -271.837     974.239    -208.786
  H     -272.889     971.608    -205.666
  H     -272.251     973.407    -204.066
  H     -270.649     976.522    -205.035
  H     -273.541     976.078    -204.071
  H     -273.024     977.818    -202.454
  H     -270.480     976.742    -201.900
  H     -271.580     974.714    -200.929
  H     -272.287     976.240    -200.367
  P     -271.682     979.981    -203.008
  C     -273.390     981.648    -204.093
  O     -273.069     980.308    -203.739
  O     -270.610     980.808    -203.840
  O     -271.614     980.239    -201.524
  H     -270.477     980.469    -204.751
  H     -272.499     982.203    -204.388
  H     -273.874     982.140    -203.267
  H     -274.074     981.616    -204.939
  H     -277.266     973.694    -202.583
  H     -276.415     975.155    -202.142
  H     -276.962     974.054    -200.901

 3  4  5  6  7  8  9  10  11  12  13  23  28  29  30  31  32 0
 6-311+G(2d,p)
 ****
 33  34 0
 6-311+G(2d,p)
 ****
 1  2  14  15  16  17  18  19  20  21  22  24  25  26 0
 3-21G
 ****
 27  35  36  37  38  39  40  41  42  43  44  45 0
 3-21G
 ****


