%nproc=1
%NoSave
%Mem=1900MB
#P OB98/GEN NMR

erre ene a

0 1
  C      885.850    -898.490    -895.050
  O      886.733    -899.170    -895.910
  H      884.926    -898.240    -895.580
  H      885.601    -899.140    -894.210
  H      886.313    -897.580    -894.660
  P      887.203    -898.380    -897.220
  C      889.603    -898.220    -896.250
  O      888.507    -897.520    -896.800
  C      890.489    -897.280    -895.450
  O      891.293    -896.500    -896.390
  C      889.718    -896.280    -894.570
  O      890.235    -896.290    -893.240
  C      889.992    -894.910    -895.190
  O      890.083    -893.880    -894.230
  C      891.326    -895.160    -895.910
  N      892.433    -890.310    -897.030
  C      892.665    -891.050    -895.920
  N      892.426    -892.360    -895.720
  C      891.939    -892.920    -896.830
  C      891.658    -892.320    -898.050
  C      891.920    -890.930    -898.120
  N      891.625    -890.170    -899.230
  N      891.140    -893.220    -898.950
  C      891.059    -894.360    -898.280
  N      891.517    -894.220    -897.000
  O      886.061    -897.270    -897.410
  O      887.346    -899.220    -898.440
  H      889.958    -893.030    -894.700
  H      885.623    -897.410    -898.270
  H      893.103    -890.500    -895.080
  H      890.643    -895.280    -898.660
  H      892.177    -895.070    -895.220
  H      889.191    -894.700    -895.900
  H      888.634    -896.490    -894.540
  H      891.180    -897.870    -894.860
  H      890.195    -898.680    -897.060
  H      891.731    -889.170    -899.150
  H      891.130    -890.610    -900.000
  H      889.217    -899.030    -895.600
  P      889.159    -896.520    -892.050
  C      889.648    -899.010    -891.410
  O      888.749    -898.080    -892.050
  O      887.854    -895.790    -892.590
  O      889.591    -895.980    -890.740
  H      887.548    -895.110    -891.970
  H      889.251    -900.000    -891.487
  H      889.757    -898.748    -890.378
  H      890.603    -898.970    -891.891

 6  7  8  9  10  11  12  13  14  15  25  28  32  33  34  35 0
 6-311+G(2d,p)
 ****
 36  39  40 0
 6-311+G(2d,p)
 ****
 1  2  3  4  5  16  17  18  19  20  21  22  23  24 0
 3-21G
 ****
 26  27  29  30  31  37  38  41  42  43  44  45  46  47  48 0
 3-21G
 ****


