%nproc=1
%NoSave
%Mem=1900MB
#P OB98/GEN NMR

erre ene a

0 1
  C       84.513     341.693     -71.933
  O       84.837     340.502     -72.628
  P       85.583     340.560     -74.040
  C       83.773     339.813     -75.691
  O       84.938     339.423     -74.976
  C       83.186     338.644     -76.481
  O       84.189     338.155     -77.416
  C       82.741     337.449     -75.623
  O       81.601     336.879     -76.277
  C       83.921     336.497     -75.738
  O       83.579     335.153     -75.432
  C       84.325     336.740     -77.188
  N       87.351     332.797     -78.387
  C       86.028     332.868     -78.131
  N       85.298     333.952     -77.792
  C       86.077     335.045     -77.734
  C       87.445     335.125     -77.942
  C       88.091     333.928     -78.302
  N       89.434     333.843     -78.604
  N       87.891     336.415     -77.733
  C       86.814     337.099     -77.410
  N       85.684     336.327     -77.458
  O       87.075     340.535     -73.973
  O       85.059     341.915     -74.706
  H       82.857     334.875     -76.029
  H       85.762     342.594     -74.676
  H       85.480     331.934     -78.210
  H       86.795     338.143     -77.127
  H       83.668     336.216     -77.893
  H       84.712     336.812     -75.046
  H       82.507     337.709     -74.589
  H       82.349     339.023     -77.077
  H       84.055     340.612     -76.383
  H       89.765     332.969     -78.976
  H       89.945     334.702     -78.808
  H       83.025     340.212     -74.995
  P       80.127     337.211     -75.741
  C       79.756     334.992     -74.514
  O       79.367     335.810     -75.604
  O       79.395     338.268     -76.494
  O       80.374     337.639     -74.211
  H       79.594     338.118     -73.878
  H       80.681     334.460     -74.772
  H       78.969     334.264     -74.314
  H       79.929     335.590     -73.616
  H       84.021     341.448     -71.015
  H       83.864     342.293     -72.536
  H       85.409     342.238     -71.722

 3  4  5  6  7  8  9  10  11  12  22  25  29  30  31  32 0
 6-311+G(2d,p)
 ****
 33  36  37 0
 6-311+G(2d,p)
 ****
 1  2  13  14  15  16  17  18  19  20  21  23  24  26 0
 3-21G
 ****
 27  28  34  35  38  39  40  41  42  43  44  45  46  47  48 0
 3-21G
 ****


