%nproc=1
%NoSave
%Mem=1900MB
#P OB98/GEN NMR

erre ene a

0 1
  C      889.531      57.979     186.127
  O      888.249      58.563     185.877
  P      887.294      57.832     184.811
  C      885.717      55.749     184.979
  O      886.472      56.747     185.655
  C      884.595      55.235     185.881
  O      885.149      54.567     187.054
  C      883.692      56.321     186.432
  O      882.796      56.805     185.433
  C      883.019      55.590     187.587
  O      881.947      54.762     187.105
  C      884.171      54.699     188.111
  N      884.777      55.208     189.332
  C      884.636      54.400     190.462
  O      884.033      53.326     190.454
  N      885.214      54.870     191.609
  C      885.872      56.063     191.750
  O      886.372      56.421     192.810
  C      885.939      56.897     190.542
  C      885.393      56.446     189.404
  O      888.360      56.975     183.983
  O      886.482      58.792     184.004
  H      889.092      56.636     184.537
  H      881.649      54.224     187.866
  H      885.135      54.288     192.436
  H      886.427      57.864     190.618
  H      885.436      57.046     188.501
  H      883.802      53.683     188.307
  H      882.598      56.269     188.331
  H      884.297      57.157     186.822
  H      884.007      54.499     185.315
  H      886.366      54.909     184.698
  H      885.312      56.175     184.055
  P      882.781      58.394     185.184
  C      883.726      59.342     182.940
  O      883.983      58.702     184.170
  O      883.310      58.934     186.595
  O      881.436      58.922     184.779
  H      884.068      58.430     186.933
  H      884.656      59.771     182.561
  H      882.987      60.141     183.045
  H      883.357      58.604     182.210
  H      890.055      58.566     186.852
  H      890.094      57.951     185.217
  H      889.403      56.984     186.499

 3  4  5  6  7  8  9  10  11  12  13  24  28  29  30  31  32 0
 6-311+G(2d,p)
 ****
 33  34 0
 6-311+G(2d,p)
 ****
 1  2  14  15  16  17  18  19  20  21  22  23  25  26  27 0
 3-21G
 ****
 35  36  37  38  39  40  41  42  43  44  45 0
 3-21G
 ****


