%nproc=1
%NoSave
%Mem=1900MB
#P OB98/GEN NMR

erre ene a

0 1
  C     1259.125    -553.593      13.430
  O     1259.730    -552.355      13.686
  H     1258.100    -553.578      13.830
  H     1259.665    -554.398      13.918
  H     1259.069    -553.783      12.358
  P     1261.263    -552.142      13.262
  C     1261.059    -549.796      12.197
  O     1261.271    -551.183      11.958
  C     1259.735    -549.362      11.518
  O     1258.649    -550.158      12.087
  C     1259.444    -547.865      11.761
  O     1259.158    -547.139      10.566
  C     1258.315    -547.898      12.799
  O     1257.459    -546.783      12.796
  C     1257.617    -549.249      12.529
  N     1256.915    -549.796      13.669
  C     1255.588    -549.410      13.848
  O     1254.970    -548.630      13.120
  N     1254.968    -549.947      14.950
  C     1255.513    -550.780      15.876
  O     1254.896    -551.209      16.834
  C     1256.915    -551.149      15.614
  C     1257.556    -550.628      14.551
  O     1262.073    -553.393      13.127
  O     1261.858    -551.176      14.396
  H     1256.918    -546.841      13.590
  H     1262.387    -551.717      15.021
  H     1254.003    -549.646      15.089
  H     1257.387    -551.827      16.332
  H     1258.592    -550.879      14.351
  H     1256.902    -549.142      11.701
  H     1258.781    -547.950      13.795
  H     1260.304    -547.349      12.189
  H     1259.789    -549.582      10.446
  H     1261.890    -549.258      11.764
  H     1260.990    -549.595      13.271
  P     1260.273    -546.846       9.425
  C     1258.543    -546.837       7.461
  O     1259.706    -547.405       8.049
  O     1261.688    -547.189       9.791
  O     1260.174    -545.230       9.252
  H     1261.101    -544.942       9.031
  H     1258.322    -547.345       6.546
  H     1258.715    -545.800       7.261
  H     1257.717    -546.938       8.134

 6  7  8  9  10  11  12  13  14  15  16  26  31  32  33  34  35 0
 6-311+G(2d,p)
 ****
 36  37 0
 6-311+G(2d,p)
 ****
 1  2  3  4  5  17  18  19  20  21  22  23  24  25 0
 3-21G
 ****
 27  28  29  30  38  39  40  41  42  43  44  45 0
 3-21G
 ****


