%nproc=1
%NoSave
%Mem=1900MB
#P OB98/GEN NMR

erre ene a

0 1
  C      -27.871     -48.713     -38.555
  O      -27.951     -50.040     -39.045
  P      -27.184     -50.376     -40.415
  C      -26.333     -52.778     -39.893
  O      -26.010     -51.401     -40.037
  C      -25.473     -53.409     -38.801
  O      -25.703     -52.764     -37.532
  C      -25.759     -54.885     -38.557
  O      -25.113     -55.723     -39.501
  C      -25.154     -55.075     -37.176
  O      -23.726     -55.230     -37.282
  C      -25.498     -53.747     -36.489
  N      -28.062     -56.666     -33.249
  C      -26.784     -56.815     -33.750
  N      -26.120     -57.931     -33.381
  N      -26.207     -55.948     -34.540
  C      -26.996     -54.884     -34.832
  C      -28.276     -54.626     -34.395
  C      -28.905     -55.600     -33.531
  O      -30.051     -55.551     -33.098
  N      -28.745     -53.442     -34.897
  C      -27.755     -52.980     -35.635
  N      -26.689     -53.840     -35.663
  O      -26.398     -49.021     -40.741
  O      -28.072     -50.796     -41.538
  H      -23.571     -56.000     -37.864
  H      -26.120     -49.013     -41.676
  H      -28.464     -57.367     -32.648
  H      -27.773     -52.044     -36.178
  H      -24.678     -53.389     -35.859
  H      -25.533     -55.964     -36.664
  H      -26.531     -58.667     -32.826
  H      -26.838     -55.079     -38.511
  H      -25.205     -58.097     -33.783
  H      -24.420     -53.260     -39.070
  H      -26.156     -53.290     -40.840
  H      -27.394     -52.874     -39.642
  P      -26.058     -56.660     -40.400
  C      -24.648     -57.083     -42.540
  O      -25.667     -56.327     -41.917
  O      -27.502     -55.995     -40.219
  O      -26.045     -58.102     -40.016
  H      -28.202     -56.660     -40.354
  H      -24.695     -56.913     -43.620
  H      -24.777     -58.152     -42.349
  H      -23.669     -56.759     -42.176
  H      -28.425     -48.636     -37.643
  H      -28.281     -48.040     -39.279
  H      -26.847     -48.461     -38.373

 3  4  5  6  7  8  9  10  11  12  23  26  30  31 0
 6-311+G(2d,p)
 ****
 33  35  36  37  38 0
 6-311+G(2d,p)
 ****
 1  2  13  14  15  16  17  18  19  20  21  22  24  25 0
 3-21G
 ****
 27  28  29  32  34  39  40  41  42  43  44  45  46  47  48  49 0
 3-21G
 ****


