%nproc=1
%NoSave
%Mem=1900MB
#P OB98/GEN NMR

erre ene a

0 1
  C      268.745    -168.622    -482.079
  O      269.633    -168.842    -480.979
  P      269.456    -167.910    -479.696
  C      271.105    -169.563    -478.566
  O      270.733    -168.197    -478.761
  C      271.915    -169.719    -477.289
  O      271.121    -169.315    -476.164
  C      272.366    -171.144    -476.990
  O      273.528    -171.497    -477.727
  C      272.680    -171.044    -475.500
  O      273.993    -170.497    -475.311
  C      271.590    -170.058    -475.001
  N      270.029    -172.810    -471.049
  C      271.286    -172.325    -471.340
  N      272.262    -172.568    -470.433
  N      271.562    -171.643    -472.415
  C      270.498    -171.433    -473.212
  C      269.188    -171.876    -473.045
  C      268.903    -172.672    -471.863
  O      267.830    -173.180    -471.578
  N      268.367    -171.459    -474.053
  C      269.152    -170.727    -474.819
  N      270.461    -170.711    -474.370
  O      268.240    -168.595    -478.896
  O      269.174    -166.463    -479.984
  H      274.595    -170.973    -475.904
  H      267.793    -167.933    -478.341
  H      269.872    -173.317    -470.189
  H      268.826    -170.196    -475.710
  H      272.019    -169.329    -474.303
  H      272.664    -172.027    -474.996
  H      272.074    -172.979    -469.522
  H      271.552    -171.853    -477.143
  H      273.177    -172.183    -470.614
  H      272.785    -169.040    -477.350
  H      271.715    -169.899    -479.422
  H      270.192    -170.179    -478.534
  P      273.885    -173.069    -477.774
  C      275.590    -172.791    -479.722
  O      275.381    -173.131    -478.364
  O      272.966    -173.625    -478.942
  O      273.657    -173.794    -476.482
  H      272.791    -174.574    -478.819
  H      274.932    -171.977    -480.038
  H      275.402    -173.664    -480.352
  H      276.627    -172.481    -479.854
  H      268.974    -169.311    -482.865
  H      268.862    -167.621    -482.437
  H      267.735    -168.770    -481.757

 3  4  5  6  7  8  9  10  11  12  23  26  30  31  33  0
 6-311+G(2d,p)
 ****
 35  36  37  38 0
 6-311+G(2d,p)
 ****
 1  2  13  14  15  16  17  18  19  20  21  22  24  25  27  28  29 0
 3-21G
 ****
 32  34  39  40  41  42  43  44  45  46  47  48  49 0
 3-21G
 ****


