%nproc=1
%NoSave
%Mem=1900MB
#P OB98/GEN NMR

erre ene a

0 1
  C       96.862     -70.562     -68.583
  O       95.981     -69.761     -69.345
  H       97.205     -69.982     -67.722
  H       97.729     -70.841     -69.187
  H       96.350     -71.458     -68.225
  P       95.216     -70.485     -70.558
  C       96.452     -69.451     -72.629
  O       95.309     -69.466     -71.792
  C       96.500     -68.160     -73.448
  O       95.495     -68.234     -74.489
  C       96.232     -66.898     -72.628
  O       97.063     -65.848     -73.125
  C       94.774     -66.588     -72.918
  O       94.471     -65.210     -72.708
  C       94.636     -67.081     -74.365
  N       93.254     -67.408     -74.711
  C       92.525     -66.423     -75.385
  O       93.043     -65.336     -75.642
  N       91.218     -66.673     -75.714
  C       90.661     -67.784     -75.339
  N       89.356     -67.964     -75.677
  C       91.376     -68.828     -74.579
  C       92.656     -68.582     -74.311
  O       93.690     -70.379     -70.088
  O       95.685     -71.874     -70.835
  H       94.636     -65.003     -71.760
  H       93.463     -69.521     -69.693
  H       90.864     -69.730     -74.276
  H       93.259     -69.298     -73.764
  H       94.997     -66.319     -75.068
  H       94.128     -67.177     -72.254
  H       96.408     -67.029     -71.560
  H       97.471     -68.107     -73.953
  H       88.897     -67.216     -76.181
  H       96.439     -70.311     -73.305
  H       88.811     -68.763     -75.394
  H       97.340     -69.530     -71.993
  P       98.227     -65.262     -72.194
  C       98.096     -62.831     -73.042
  O       98.893     -63.999     -72.926
  O       99.193     -66.263     -71.655
  O       97.409     -64.568     -70.996
  H       97.897     -64.730     -70.166
  H       98.652     -62.068     -73.545
  H       97.822     -62.488     -72.066
  H       97.212     -63.056     -73.602

 6  7  8  9  10  11  12  13  14  15  16  26  30  31  32  33  35 0
 6-311+G(2d,p)
 ****
 37  38 0
 6-311+G(2d,p)
 ****
 1  2  3  4  5  17  18  19  20  21  22  23  24  25 0
 3-21G
 ****
 27  28  29  34  36  39  40  41  42  43  44  45  46 0
 3-21G
 ****


