%nproc=1
%NoSave
%Mem=1900MB
#P OB98/GEN NMR

erre ene a

0 1
  C      809.769    -220.924    -467.322
  O      809.014    -222.047    -467.741
  H      809.322    -220.510    -466.420
  H      809.790    -220.158    -468.097
  H      810.792    -221.239    -467.082
  P      809.329    -222.680    -469.181
  C      807.554    -222.220    -471.010
  O      808.639    -221.683    -470.246
  C      806.331    -222.467    -470.131
  O      806.112    -221.337    -469.252
  C      805.027    -222.615    -470.918
  O      804.947    -223.797    -471.669
  C      803.970    -222.312    -469.852
  O      803.605    -223.460    -469.082
  C      804.711    -221.290    -468.948
  N      804.161    -219.948    -469.094
  C      803.915    -219.262    -467.915
  O      804.126    -219.721    -466.796
  N      803.388    -217.994    -468.059
  C      803.041    -217.408    -469.239
  O      802.530    -216.304    -469.293
  C      803.288    -218.208    -470.452
  C      803.831    -219.416    -470.339
  O      808.945    -224.125    -469.359
  O      810.892    -222.396    -469.387
  H      803.290    -224.145    -469.713
  H      811.263    -222.967    -470.110
  H      803.214    -217.473    -467.213
  H      803.018    -217.766    -471.407
  H      804.020    -220.029    -471.210
  H      804.603    -221.584    -467.891
  H      803.056    -221.918    -470.306
  H      804.982    -221.784    -471.634
  H      806.518    -223.359    -469.502
  H      807.893    -223.184    -471.432
  H      807.314    -221.542    -471.831
  P      803.992    -223.958    -472.955
  C      801.690    -225.110    -472.544
  O      802.464    -223.912    -472.459
  O      804.401    -224.985    -473.964
  O      804.165    -222.506    -473.660
  H      804.130    -222.641    -474.613
  H      800.702    -224.923    -472.180
  H      802.149    -225.874    -471.952
  H      801.640    -225.430    -473.564

 6  7  8  9  10  11  12  13  14  15  16  26  31  32  33  34  35 0
 6-311+G(2d,p)
 ****
 36  37 0
 6-311+G(2d,p)
 ****
 1  2  3  4  5  17  18  19  20  21  22  23  24  25 0
 3-21G
 ****
 27  28  29  30  38  39  40  41  42  43  44  45 0
 3-21G
 ****


