%nproc=1
%NoSave
%Mem=1900MB
#P OB98/GEN NMR

erre ene a

0 1
  C     -140.973    -826.017     117.270
  O     -142.303    -825.940     117.738
  H     -140.274    -825.990     118.109
  H     -140.846    -826.962     116.733
  H     -140.764    -825.191     116.583
  P     -142.709    -824.616     118.550
  C     -141.820    -823.890     120.881
  O     -142.377    -824.931     120.090
  C     -141.479    -824.429     122.269
  O     -140.372    -825.354     122.186
  C     -141.050    -823.361     123.267
  O     -142.158    -822.686     123.844
  C     -140.334    -824.215     124.299
  O     -141.298    -824.892     125.126
  C     -139.596    -825.226     123.407
  N     -134.718    -826.731     123.050
  C     -135.832    -827.381     123.448
  N     -137.091    -826.909     123.521
  C     -137.142    -825.625     123.122
  C     -136.085    -824.831     122.699
  C     -134.821    -825.443     122.664
  N     -133.675    -824.778     122.273
  N     -136.519    -823.551     122.412
  C     -137.822    -823.585     122.624
  N     -138.242    -824.809     123.065
  O     -144.308    -824.627     118.514
  O     -142.139    -823.338     118.036
  H     -140.794    -825.507     125.692
  H     -144.655    -823.729     118.685
  H     -135.694    -828.410     123.754
  H     -138.498    -822.751     122.479
  H     -139.527    -826.218     123.863
  H     -139.692    -823.638     124.963
  H     -140.334    -822.657     122.827
  H     -142.350    -824.986     122.643
  H     -142.548    -823.079     120.975
  H     -132.803    -825.246     122.458
  H     -133.723    -823.781     122.127
  H     -140.920    -823.507     120.392
  P     -141.896    -821.221     124.453
  C     -139.873    -820.354     125.841
  O     -140.795    -821.416     125.594
  O     -143.236    -820.931     125.276
  O     -141.602    -820.169     123.439
  H     -143.394    -819.962     125.344
  H     -139.206    -820.637     126.628
  H     -140.411    -819.475     126.128
  H     -139.312    -820.155     124.952

 6  7  8  9  10  11  12  13  14  15  25  28  32  33  34  35 0
 6-311+G(2d,p)
 ****
 36  39  40 0
 6-311+G(2d,p)
 ****
 1  2  3  4  5  16  17  18  19  20  21  22  23  24 0
 3-21G
 ****
 26  27  29  30  31  37  38  41  42  43  44  45  46  47 0
 3-21G
 ****
 48 0
 3-21G
 ****


