%nproc=1
%NoSave
%Mem=1900MB
#P OB98/GEN NMR

erre ene a

0 1
  C      424.214     640.331     153.178
  O      423.030     639.895     152.544
  H      424.758     640.987     152.489
  H      424.850     639.469     153.412
  H      424.001     640.889     154.087
  P      421.911     639.168     153.422
  C      421.149     637.553     151.557
  O      420.795     638.641     152.389
  C      420.144     637.379     150.417
  O      418.802     637.274     150.984
  C      420.132     638.537     149.415
  O      419.777     638.002     148.130
  C      419.008     639.399     149.951
  O      418.539     640.321     148.987
  C      418.015     638.326     150.395
  N      417.007     638.844     151.330
  C      415.965     639.578     150.768
  O      415.873     639.836     149.570
  N      415.039     640.066     151.650
  C      415.078     639.945     153.011
  O      414.238     640.426     153.755
  C      416.228     639.189     153.547
  C      417.122     638.685     152.696
  O      421.376     639.948     154.574
  O      422.602     637.806     153.909
  H      419.290     640.685     148.473
  H      422.244     637.530     154.770
  H      414.269     640.594     151.267
  H      416.306     639.082     154.624
  H      417.981     638.123     153.061
  H      417.476     637.908     149.537
  H      419.352     639.981     150.812
  H      421.088     639.064     149.350
  H      420.344     636.419     149.910
  H      421.175     636.640     152.181
  H      422.154     637.719     151.147
  P      420.864     637.672     147.002
  C      419.585     637.853     144.772
  O      420.130     636.981     145.762
  O      422.065     636.938     147.501
  O      421.290     639.118     146.417
  H      422.196     639.079     146.086
  H      419.124     637.273     144.000
  H      420.368     638.448     144.351
  H      418.854     638.492     145.223

 6  7  8  9  10  11  12  13  14  15  16  26  31  32  33  34  35 0
 6-311+G(2d,p)
 ****
 36  37 0
 6-311+G(2d,p)
 ****
 1  2  3  4  5  17  18  19  20  21  22  23  24  25 0
 3-21G
 ****
 27  28  29  30  38  39  40  41  42  43  44  45 0
 3-21G
 ****


