%nproc=1
%NoSave
%Mem=1900MB
#P OB98/GEN NMR

erre ene a

0 1
  C      121.786     -74.973     217.082
  O      121.029     -75.819     216.212
  P      120.397     -77.152     216.843
  C      120.806     -78.864     214.923
  O      119.866     -78.078     215.649
  C      120.146     -79.457     213.674
  O      119.008     -80.270     214.024
  C      119.602     -78.401     212.729
  O      120.647     -77.823     211.969
  C      118.607     -79.201     211.897
  O      119.226     -79.774     210.733
  C      118.147     -80.307     212.874
  N      116.751     -80.175     213.255
  C      115.814     -80.574     212.296
  O      116.189     -80.987     211.197
  N      114.480     -80.473     212.600
  C      114.115     -79.988     213.747
  N      112.779     -79.907     213.987
  C      115.073     -79.528     214.775
  C      116.361     -79.649     214.464
  O      119.053     -76.629     217.533
  O      121.292     -77.838     217.826
  H      119.652     -79.024     210.264
  H      118.856     -77.155     218.331
  H      114.719     -79.126     215.712
  H      117.133     -79.334     215.160
  H      118.277     -81.297     212.417
  H      117.787     -78.572     211.537
  H      119.070     -77.625     213.295
  H      120.882     -80.083     213.155
  H      112.154     -80.228     213.260
  H      121.195     -79.664     215.555
  H      112.385     -79.539     214.842
  H      121.659     -78.232     214.653
  P      120.867     -76.245     212.079
  C      121.940     -75.674     209.815
  O      122.166     -75.941     211.188
  O      121.446     -76.086     213.567
  O      119.681     -75.368     211.845
  H      121.533     -75.143     213.794
  H      122.864     -75.284     209.378
  H      121.152     -74.929     209.692
  H      121.669     -76.598     209.297
  H      122.145     -74.127     216.533
  H      122.616     -75.520     217.478
  H      121.163     -74.639     217.885

 3  4  5  6  7  8  9  10  11  12  13  21  23  27  28  29  30  32 0
 6-311+G(2d,p)
 ****
 34  35 0
 6-311+G(2d,p)
 ****
 1  2  14  15  16  17  18  19  20  22  24  25  26 0
 3-21G
 ****
 31  33  36  37  38  39  40  41  42  43  44  45  46 0
 3-21G
 ****


