%nproc=1
%NoSave
%Mem=1900MB
#P OB98/GEN NMR

erre ene a

0 1
  C       84.496      88.517     -25.220
  O       85.312      87.465     -24.700
  P       85.160      85.989     -25.306
  C       86.852      86.415     -27.201
  O       86.514      85.609     -26.082
  C       88.374      86.559     -27.331
  O       88.919      87.292     -26.194
  C       89.091      85.203     -27.376
  O       90.261      85.278     -28.207
  C       89.553      85.017     -25.943
  O       90.626      84.082     -25.851
  C       89.916      86.453     -25.573
  N       92.111      85.109     -21.146
  C       92.369      84.749     -22.423
  N       91.759      85.165     -23.552
  C       90.796      86.058     -23.271
  C       90.425      86.529     -22.020
  C       91.126      86.009     -20.918
  N       90.844      86.355     -19.615
  N       89.391      87.437     -22.122
  C       89.110      87.475     -23.408
  N       89.951      86.687     -24.145
  O       83.903      85.728     -26.066
  O       85.243      85.061     -23.999
  H       90.966      84.115     -24.938
  H       84.577      84.350     -24.071
  H       93.169      84.025     -22.554
  H       88.304      88.042     -23.853
  H       90.891      86.744     -25.982
  H       88.722      84.647     -25.330
  H       88.469      84.370     -27.720
  H       88.603      87.145     -28.228
  H       86.393      87.401     -27.099
  H       91.319      85.844     -18.886
  H       90.020      86.908     -19.424
  H       86.416      85.975     -28.106
  P       90.249      84.355     -29.527
  C       88.784      85.821     -31.120
  O       90.067      85.360     -30.760
  O       89.282      83.220     -29.452
  O       91.778      83.890     -29.618
  H       92.428      84.610     -29.554
  H       88.888      86.588     -31.892
  H       88.271      86.262     -30.260
  H       88.188      84.997     -31.524
  H       84.722      89.430     -24.709
  H       83.464      88.273     -25.075
  H       84.691      88.636     -26.265

 3  4  5  6  7  8  9  10  11  12  22  25  29  30  31  32 0
 6-311+G(2d,p)
 ****
 33  36  37 0
 6-311+G(2d,p)
 ****
 1  2  13  14  15  16  17  18  19  20  21  23  24  26 0
 3-21G
 ****
 27  28  34  35  38  39  40  41  42  43  44  45  46  47  48 0
 3-21G
 ****


