%nproc=1
%NoSave
%Mem=1900MB
#P OB98/GEN NMR

erre ene a

0 1
  C     -103.344     242.639    -230.121
  O     -103.190     241.272    -229.718
  P     -102.369     240.185    -230.572
  C     -100.754     239.622    -228.640
  O     -101.697     239.117    -229.575
  C      -99.828     238.521    -228.117
  O     -100.518     237.718    -227.107
  C      -99.312     237.548    -229.196
  O      -97.954     237.250    -228.869
  C     -100.217     236.338    -228.992
  O      -99.713     235.148    -229.565
  C     -100.302     236.335    -227.463
  N     -101.346     235.484    -226.894
  C     -101.045     234.129    -226.693
  O      -99.961     233.652    -227.037
  N     -102.001     233.327    -226.119
  C     -103.151     233.817    -225.785
  N     -104.051     232.966    -225.209
  C     -103.516     235.231    -225.996
  C     -102.576     235.997    -226.546
  O     -101.394     240.793    -231.532
  O     -103.474     239.336    -231.359
  H     -103.130     239.091    -232.240
  H     -100.098     234.392    -229.083
  H     -104.487     235.599    -225.694
  H     -102.759     237.059    -226.709
  H      -99.328     236.044    -227.049
  H     -101.187     236.547    -229.451
  H      -99.342     237.966    -230.211
  H      -98.982     239.000    -227.606
  H     -103.755     232.004    -225.069
  H     -101.301     240.056    -227.796
  H     -104.969     233.250    -224.902
  H     -100.168     240.417    -229.118
  P      -96.769     238.109    -229.517
  C      -95.467     238.291    -227.268
  O      -95.454     237.888    -228.624
  O      -97.187     239.605    -229.118
  O      -96.604     237.999    -231.002
  H      -96.806     240.231    -229.765
  H      -95.013     237.505    -226.659
  H      -96.475     238.489    -226.895
  H      -94.866     239.209    -227.165
  H     -103.928     243.162    -229.393
  H     -103.838     242.678    -231.069
  H     -102.381     243.098    -230.202

 3  4  5  6  7  8  9  10  11  12  13  24  27  28  29  30  32 0
 6-311+G(2d,p)
 ****
 34  35 0
 6-311+G(2d,p)
 ****
 1  2  14  15  16  17  18  19  20  21  22  23  25  26 0
 3-21G
 ****
 31  33  36  37  38  39  40  41  42  43  44  45  46 0
 3-21G
 ****


