%nproc=1
%NoSave
%Mem=1900MB
#P OB98/GEN NMR

erre ene a

0 1
  C     -126.170     -78.659    -837.598
  O     -127.182     -77.704    -837.356
  P     -128.559     -78.224    -836.709
  C     -129.711     -75.882    -836.719
  O     -129.716     -77.220    -837.188
  C     -130.621     -75.018    -837.603
  O     -130.176     -75.064    -838.982
  C     -132.072     -75.478    -837.620
  O     -132.762     -75.062    -836.453
  C     -132.585     -74.824    -838.896
  O     -132.964     -73.464    -838.662
  C     -131.347     -74.907    -839.816
  N     -131.442     -75.956    -840.814
  C     -132.061     -75.593    -842.020
  O     -132.512     -74.475    -842.230
  N     -132.160     -76.581    -842.962
  C     -131.793     -77.891    -842.794
  O     -131.961     -78.749    -843.651
  C     -131.178     -78.223    -841.494
  C     -131.039     -77.258    -840.577
  O     -128.398     -77.899    -835.144
  O     -128.849     -79.665    -836.953
  H     -133.699     -73.479    -838.017
  H     -128.835     -78.595    -834.616
  H     -132.580     -76.344    -843.839
  H     -130.857     -79.250    -841.341
  H     -130.607     -77.491    -839.610
  H     -131.216     -73.940    -840.345
  H     -133.464     -75.345    -839.296
  H     -132.108     -76.569    -837.728
  H     -130.548     -73.971    -837.260
  H     -128.685     -75.492    -836.745
  H     -130.057     -75.859    -835.678
  P     -133.298     -76.220    -835.470
  C     -135.223     -74.574    -834.813
  O     -134.841     -75.879    -835.228
  O     -132.557     -75.812    -834.107
  O     -132.981     -77.587    -835.958
  H     -132.444     -74.840    -834.022
  H     -134.596     -73.804    -835.270
  H     -135.168     -74.498    -833.733
  H     -136.261     -74.407    -835.123
  H     -125.318     -78.175    -838.027
  H     -126.536     -79.403    -838.275
  H     -125.890     -79.123    -836.676

 3  4  5  6  7  8  9  10  11  12  13  23  28  29  30  31  32 0
 6-311+G(2d,p)
 ****
 33  34 0
 6-311+G(2d,p)
 ****
 1  2  14  15  16  17  18  19  20  21  22  24  25  26 0
 3-21G
 ****
 27  35  36  37  38  39  40  41  42  43  44  45 0
 3-21G
 ****


