%nproc=1
%NoSave
%Mem=1900MB
#P OB98/GEN NMR

erre ene a

0 1
  C      860.663    -363.311     296.676
  O      860.892    -363.308     295.261
  P      860.630    -361.964     294.422
  C      862.415    -362.288     292.537
  O      861.047    -362.217     292.894
  C      862.576    -362.902     291.143
  O      862.139    -364.279     291.149
  C      861.742    -362.233     290.061
  O      862.317    -360.999     289.637
  C      861.740    -363.294     288.978
  O      862.929    -363.241     288.189
  C      861.688    -364.591     289.818
  N      860.366    -365.215     289.822
  C      860.224    -366.383     289.087
  O      861.127    -366.867     288.398
  N      858.984    -366.969     289.130
  C      857.878    -366.473     289.763
  O      856.790    -367.031     289.749
  C      858.073    -365.194     290.463
  C      859.282    -364.625     290.449
  O      861.818    -361.017     294.934
  O      859.300    -361.314     294.645
  H      862.847    -363.945     287.506
  H      861.544    -360.078     294.869
  H      858.867    -367.831     288.623
  H      857.225    -364.743     290.960
  H      859.448    -363.677     290.961
  H      862.411    -365.323     289.417
  H      860.896    -363.189     288.287
  H      860.716    -362.075     290.419
  H      863.652    -362.878     290.881
  H      862.950    -362.908     293.266
  H      862.844    -361.273     292.561
  P      861.435    -359.671     289.877
  C      863.689    -358.339     289.867
  O      862.367    -358.467     289.382
  O      861.447    -359.582     291.471
  O      860.072    -359.750     289.271
  H      862.290    -359.909     291.854
  H      864.145    -359.308     290.048
  H      863.676    -357.745     290.787
  H      864.284    -357.799     289.111
  H      860.886    -364.280     297.071
  H      859.638    -363.073     296.872
  H      861.294    -362.582     297.141

 3  4  5  6  7  8  9  10  11  12  13  23  28  29  30  31  32 0
 6-311+G(2d,p)
 ****
 33  34 0
 6-311+G(2d,p)
 ****
 1  2  14  15  16  17  18  19  20  21  22  24  25  26 0
 3-21G
 ****
 27  35  36  37  38  39  40  41  42  43  44  45 0
 3-21G
 ****


