%nproc=1
%NoSave
%Mem=1900MB
#P OB98/GEN NMR

erre ene a

0 1
  C      796.653      42.269    -287.358
  O      795.641      41.337    -287.026
  P      795.786      39.842    -287.594
  C      793.206      39.488    -287.490
  O      794.379      39.486    -288.296
  C      791.971      39.627    -288.368
  O      791.959      40.906    -289.044
  C      791.869      38.590    -289.482
  O      791.364      37.347    -289.021
  C      790.877      39.255    -290.421
  O      789.532      39.060    -289.936
  C      791.272      40.740    -290.311
  N      791.409      42.832    -294.916
  C      790.354      42.723    -294.022
  N      789.158      43.180    -294.448
  N      790.462      42.210    -292.827
  C      791.720      41.787    -292.545
  C      792.847      41.850    -293.342
  C      792.703      42.406    -294.665
  O      793.582      42.482    -295.522
  N      793.938      41.321    -292.705
  C      793.490      40.947    -291.524
  N      792.137      41.160    -291.393
  O      795.777      38.935    -286.278
  O      796.999      39.613    -288.435
  H      788.933      39.404    -290.628
  H      796.129      38.050    -286.482
  H      791.264      43.232    -295.831
  H      794.091      40.496    -290.745
  H      790.396      41.391    -290.302
  H      790.911      38.853    -291.440
  H      788.991      43.531    -295.384
  H      792.831      38.464    -289.999
  H      788.350      43.051    -293.845
  H      791.076      39.576    -287.727
  H      793.258      40.321    -286.788
  H      793.162      38.552    -286.918
  P      791.880      36.033    -289.789
  C      789.717      34.895    -288.894
  O      790.567      35.128    -290.003
  O      792.705      35.259    -288.657
  O      792.701      36.303    -291.009
  H      793.386      34.691    -289.059
  H      788.764      34.495    -289.264
  H      789.519      35.813    -288.347
  H      790.172      34.154    -288.225
  H      796.426      43.216    -286.914
  H      796.704      42.377    -288.421
  H      797.595      41.919    -286.990

 3  4  5  6  7  8  9  10  11  12  23  26  30  31 0
 6-311+G(2d,p)
 ****
 33  35  36  37  38 0
 6-311+G(2d,p)
 ****
 1  2  13  14  15  16  17  18  19  20  21  22  24  25 0
 3-21G
 ****
 27  28  29  32  34  39  40  41  42  43  44  45  46  47  48  49 0
 3-21G
 ****


