%nproc=1
%NoSave
%Mem=1900MB
#P OB98/GEN NMR

erre ene a

0 1
  C      537.901    -270.455    -447.063
  O      538.882    -270.528    -448.108
  P      538.453    -271.200    -449.497
  C      540.036    -269.454    -450.597
  O      539.528    -270.777    -450.610
  C      541.562    -269.461    -450.456
  O      541.982    -270.038    -449.201
  C      542.264    -270.276    -451.542
  O      542.431    -269.531    -452.731
  C      543.611    -270.526    -450.885
  O      544.449    -269.356    -451.030
  C      543.236    -270.740    -449.418
  N      545.409    -274.671    -447.085
  C      545.859    -273.370    -447.246
  N      547.055    -273.069    -446.701
  N      545.181    -272.436    -447.889
  C      543.994    -272.885    -448.361
  C      543.443    -274.146    -448.281
  C      544.204    -275.159    -447.576
  O      543.869    -276.328    -447.416
  N      542.225    -274.199    -448.885
  C      542.029    -272.976    -449.347
  N      543.079    -272.143    -449.063
  O      537.158    -270.355    -449.918
  O      538.153    -272.659    -449.415
  H      545.340    -269.610    -450.728
  H      536.567    -270.904    -450.466
  H      545.974    -275.338    -446.586
  H      541.142    -272.652    -449.873
  H      543.979    -270.314    -448.728
  H      544.157    -271.366    -451.351
  H      547.604    -273.723    -446.149
  H      541.744    -271.237    -451.721
  H      547.381    -272.116    -446.776
  H      541.919    -268.424    -450.499
  H      539.596    -268.880    -449.768
  H      539.722    -268.936    -451.511
  P      541.507    -269.906    -453.995
  C      542.502    -267.895    -455.312
  O      542.242    -269.287    -455.276
  O      540.232    -268.962    -453.783
  O      541.136    -271.349    -454.084
  H      539.434    -269.416    -454.140
  H      543.143    -267.687    -456.173
  H      543.022    -267.572    -454.404
  H      541.565    -267.340    -455.416
  H      538.330    -269.985    -446.203
  H      537.579    -271.443    -446.806
  H      537.062    -269.883    -447.401

 3  4  5  6  7  8  9  10  11  12  23  26  30  31 0
 6-311+G(2d,p)
 ****
 33  35  36  37  38 0
 6-311+G(2d,p)
 ****
 1  2  13  14  15  16  17  18  19  20  21  22  24  25 0
 3-21G
 ****
 27  28  29  32  34  39  40  41  42  43  44  45  46  47  48  49 0
 3-21G
 ****


