%nproc=1
%NoSave
%Mem=1900MB
#P OB98/GEN NMR

erre ene a

0 1
  C     -274.740     -62.286      60.774
  O     -273.571     -61.530      61.115
  P     -272.285     -61.470      60.157
  C     -272.877     -59.453      58.669
  O     -272.043     -59.947      59.713
  C     -272.552     -57.995      58.326
  O     -273.253     -57.581      57.136
  C     -272.930     -56.991      59.410
  O     -271.970     -56.992      60.449
  C     -273.004     -55.697      58.603
  O     -271.689     -55.152      58.404
  C     -273.587     -56.187      57.271
  N     -277.370     -52.749      57.403
  C     -276.029     -52.620      57.492
  N     -275.085     -53.585      57.453
  C     -275.652     -54.791      57.278
  C     -277.004     -55.078      57.175
  C     -277.888     -53.989      57.245
  N     -279.255     -54.125      57.169
  N     -277.206     -56.434      57.029
  C     -275.995     -56.956      57.026
  N     -275.023     -56.003      57.174
  O     -272.320     -62.439      59.021
  O     -271.045     -61.775      61.124
  H     -271.797     -54.233      58.102
  H     -270.323     -62.186      60.612
  H     -275.663     -51.602      57.612
  H     -275.771     -58.008      56.917
  H     -273.133     -55.672      56.417
  H     -273.607     -54.927      59.094
  H     -273.923     -57.226      59.809
  H     -271.477     -57.935      58.108
  H     -273.921     -59.527      58.995
  H     -279.823     -53.298      57.261
  H     -279.652     -55.051      57.098
  H     -272.738     -60.084      57.784
  P     -272.441     -56.894      61.976
  C     -273.796     -59.038      62.358
  O     -272.548     -58.392      62.535
  O     -273.632     -56.033      62.231
  O     -271.145     -56.330      62.735
  H     -271.427     -55.811      63.511
  H     -274.494     -58.700      63.128
  H     -273.650     -60.116      62.458
  H     -274.210     -58.826      61.368
  H     -275.469     -62.185      61.551
  H     -274.478     -63.317      60.663
  H     -275.146     -61.920      59.854

 3  4  5  6  7  8  9  10  11  12  22  25  29  30  31  32 0
 6-311+G(2d,p)
 ****
 33  36  37 0
 6-311+G(2d,p)
 ****
 1  2  13  14  15  16  17  18  19  20  21  23  24  26 0
 3-21G
 ****
 27  28  34  35  38  39  40  41  42  43  44  45  46  47  48 0
 3-21G
 ****


