%nproc=1
%NoSave
%Mem=1900MB
#P OB98/GEN NMR

erre ene a

0 1
  C     -178.286     -17.127      65.435
  O     -179.171     -18.113      65.944
  P     -179.932     -19.132      64.960
  C     -181.550     -18.792      62.972
  O     -180.965     -18.224      64.138
  C     -182.813     -18.019      62.596
  O     -183.850     -18.291      63.560
  C     -182.644     -16.506      62.581
  O     -181.958     -16.080      61.413
  C     -184.100     -16.055      62.689
  O     -184.744     -16.139      61.406
  C     -184.689     -17.115      63.644
  N     -184.794     -16.640      65.020
  C     -185.864     -15.779      65.301
  O     -186.665     -15.454      64.427
  N     -186.018     -15.323      66.592
  C     -185.176     -15.680      67.513
  N     -185.420     -15.254      68.784
  C     -184.006     -16.540      67.249
  C     -183.884     -16.983      65.995
  O     -180.541     -20.317      65.635
  O     -178.843     -19.509      63.853
  H     -184.706     -17.079      61.136
  H     -178.278     -20.286      64.099
  H     -183.323     -16.799      68.045
  H     -183.065     -17.639      65.723
  H     -185.682     -17.424      63.298
  H     -184.211     -15.027      63.054
  H     -182.090     -16.173      63.468
  H     -183.153     -18.378      61.614
  H     -186.319     -14.819      68.951
  H     -181.815     -19.834      63.187
  H     -184.994     -15.711      69.584
  H     -180.820     -18.776      62.155
  P     -180.927     -14.859      61.565
  C     -181.092     -12.492      62.618
  O     -181.789     -13.622      62.120
  O     -180.594     -14.469      60.050
  O     -179.696     -15.183      62.351
  H     -179.728     -14.833      59.786
  H     -181.803     -11.667      62.726
  H     -180.302     -12.189      61.924
  H     -180.664     -12.718      63.598
  H     -177.885     -16.555      66.246
  H     -178.818     -16.479      64.770
  H     -177.488     -17.604      64.906

 3  4  5  6  7  8  9  10  11  12  13  23  27  28  29  30  32 0
 6-311+G(2d,p)
 ****
 34  35 0
 6-311+G(2d,p)
 ****
 1  2  14  15  16  17  18  19  20  21  22  24  25  26 0
 3-21G
 ****
 31  33  36  37  38  39  40  41  42  43  44  45  46 0
 3-21G
 ****


