%nproc=1
%NoSave
%Mem=1900MB
#P OB98/GEN NMR

erre ene a

0 1
  C     -963.529    -644.982    -162.256
  O     -963.660    -643.738    -161.587
  H     -964.528    -645.404    -162.407
  H     -962.953    -645.669    -161.631
  H     -963.049    -644.860    -163.225
  P     -962.389    -642.760    -161.614
  C     -963.695    -640.906    -162.872
  O     -962.967    -641.264    -161.712
  C     -964.785    -639.894    -162.527
  O     -965.863    -640.584    -161.820
  C     -964.310    -638.739    -161.632
  O     -964.994    -637.530    -162.024
  C     -964.822    -639.145    -160.256
  O     -964.977    -638.028    -159.380
  C     -966.144    -639.819    -160.643
  N     -968.359    -639.588    -156.141
  C     -968.152    -638.609    -157.089
  N     -968.529    -637.349    -156.771
  N     -967.598    -638.835    -158.253
  C     -967.280    -640.137    -158.454
  C     -967.429    -641.200    -157.598
  C     -968.026    -640.931    -156.301
  O     -968.217    -641.757    -155.409
  N     -966.926    -642.348    -158.146
  C     -966.455    -641.978    -159.323
  N     -966.643    -640.646    -159.555
  O     -961.773    -643.022    -163.067
  O     -961.386    -642.994    -160.532
  H     -965.709    -637.468    -159.721
  H     -961.064    -643.694    -163.012
  H     -968.770    -639.357    -155.251
  H     -965.951    -642.624    -160.030
  H     -966.931    -639.092    -160.875
  H     -964.136    -639.855    -159.796
  H     -968.984    -637.106    -155.906
  H     -963.225    -638.572    -161.653
  H     -968.421    -636.631    -157.475
  H     -965.214    -639.503    -163.462
  H     -964.167    -641.802    -163.297
  H     -963.008    -640.484    -163.616
  P     -964.468    -636.142    -161.421
  C     -963.923    -635.032    -163.702
  O     -964.691    -634.994    -162.507
  O     -962.880    -636.324    -161.394
  O     -965.002    -635.847    -160.055
  H     -962.503    -635.870    -160.623
  H     -964.187    -634.201    -164.322
  H     -964.121    -635.944    -164.225
  H     -962.882    -634.979    -163.459

 6  7  8  9  10  11  12  13  14  15  26  29  33  34 0
 6-311+G(2d,p)
 ****
 36  38  39  40  41 0
 6-311+G(2d,p)
 ****
 1  2  3  4  5  16  17  18  19  20  21  22  23  24  25 0
 3-21G
 ****
 27  28  30  31  32  35  37  42  43  44  45  46  47 0
 3-21G
 ****
 48  49 0
 3-21G
 ****


