%nproc=1
%NoSave
%Mem=1900MB
#P OB98/GEN NMR

erre ene a

0 1
  C     -241.472    -505.800     395.062
  O     -241.097    -506.864     394.205
  H     -242.516    -505.530     394.880
  H     -241.362    -506.130     396.100
  H     -240.829    -504.932     394.897
  P     -241.013    -506.535     392.634
  C     -238.760    -507.763     392.212
  O     -240.162    -507.732     391.982
  C     -238.213    -509.183     392.012
  O     -238.636    -510.008     393.125
  C     -238.712    -509.853     390.721
  O     -237.645    -510.617     390.153
  C     -239.817    -510.780     391.209
  O     -240.028    -511.874     390.321
  C     -239.289    -511.176     392.585
  N     -242.226    -515.145     393.906
  C     -241.169    -515.039     393.069
  N     -240.440    -513.943     392.771
  C     -240.862    -512.887     393.495
  C     -241.920    -512.843     394.390
  C     -242.628    -514.038     394.581
  N     -243.721    -514.149     395.409
  N     -242.064    -511.561     394.902
  C     -241.109    -510.852     394.328
  N     -240.365    -511.610     393.465
  O     -240.000    -505.291     392.602
  O     -242.310    -506.223     391.966
  H     -240.897    -512.273     390.536
  H     -240.480    -504.475     392.841
  H     -240.880    -515.956     392.552
  H     -240.928    -509.800     394.492
  H     -238.557    -511.992     392.536
  H     -240.757    -510.218     391.294
  H     -239.073    -509.132     389.983
  H     -237.117    -509.142     392.040
  H     -238.563    -507.438     393.242
  H     -244.203    -515.029     395.441
  H     -244.075    -513.316     395.870
  H     -238.263    -507.075     391.516
  P     -237.162    -510.208     388.675
  C     -234.668    -510.821     389.016
  O     -235.869    -511.078     388.298
  O     -236.586    -508.723     388.873
  O     -238.267    -510.233     387.664
  H     -236.964    -508.126     388.202
  H     -233.895    -511.470     388.661
  H     -234.831    -510.997     390.059
  H     -234.375    -509.803     388.868

 6  7  8  9  10  11  12  13  14  15  25  28  32  33  34  35 0
 6-311+G(2d,p)
 ****
 36  39  40 0
 6-311+G(2d,p)
 ****
 1  2  3  4  5  16  17  18  19  20  21  22  23  24 0
 3-21G
 ****
 26  27  29  30  31  37  38  41  42  43  44  45  46  47 0
 3-21G
 ****
 48 0
 3-21G
 ****


