%nproc=1
%NoSave
%Mem=1900MB
#P OB98/GEN NMR

erre ene a

0 1
  C     -112.047    -192.055    -381.043
  O     -113.397    -192.316    -380.715
  H     -111.742    -191.087    -380.640
  H     -111.418    -192.834    -380.602
  H     -111.914    -192.066    -382.129
  P     -114.486    -191.261    -381.238
  C     -115.843    -191.508    -379.040
  O     -115.858    -191.578    -380.460
  C     -116.930    -192.413    -378.462
  O     -116.535    -193.793    -378.676
  C     -117.189    -192.221    -376.959
  O     -118.562    -191.880    -376.734
  C     -116.928    -193.588    -376.348
  O     -117.867    -193.940    -375.332
  C     -117.011    -194.531    -377.543
  N     -116.415    -198.610    -374.549
  C     -117.484    -197.813    -374.771
  N     -117.611    -196.808    -375.659
  C     -116.488    -196.674    -376.387
  C     -115.327    -197.424    -376.290
  C     -115.307    -198.425    -375.303
  N     -114.200    -199.198    -375.037
  N     -114.382    -196.984    -377.200
  C     -114.949    -195.958    -377.801
  N     -116.212    -195.719    -377.332
  O     -114.781    -191.748    -382.734
  O     -114.054    -189.833    -381.197
  H     -117.496    -194.710    -374.863
  H     -114.746    -190.984    -383.341
  H     -118.353    -198.006    -374.145
  H     -114.477    -195.325    -378.546
  H     -118.043    -194.844    -377.752
  H     -115.924    -193.595    -375.907
  H     -116.543    -191.457    -376.508
  H     -117.852    -192.248    -379.033
  H     -116.033    -190.477    -378.721
  H     -114.236    -199.808    -374.238
  H     -113.336    -198.991    -375.522
  H     -114.851    -191.807    -378.680
  P     -118.849    -190.664    -375.716
  C     -120.543    -192.152    -374.414
  O     -120.297    -190.913    -375.069
  O     -119.093    -189.426    -376.698
  O     -117.738    -190.410    -374.753
  H     -118.864    -188.589    -376.247
  H     -121.545    -192.164    -374.039
  H     -119.857    -192.268    -373.601
  H     -120.412    -192.955    -375.109

 6  7  8  9  10  11  12  13  14  15  25  28  32  33  34  35 0
 6-311+G(2d,p)
 ****
 36  39  40 0
 6-311+G(2d,p)
 ****
 1  2  3  4  5  16  17  18  19  20  21  22  23  24 0
 3-21G
 ****
 26  27  29  30  31  37  38  41  42  43  44  45  46  47  48 0
 3-21G
 ****


