%nproc=1
%NoSave
%Mem=1900MB
#P OB98/GEN NMR

erre ene a

0 1
  C     -164.218    -324.862     358.831
  O     -164.997    -325.309     359.926
  H     -164.890    -324.523     358.036
  H     -163.597    -325.672     358.437
  H     -163.582    -324.026     359.133
  P     -164.241    -326.000     361.161
  C     -165.652    -324.952     363.062
  O     -164.398    -324.979     362.385
  C     -165.750    -323.702     363.929
  O     -165.525    -322.520     363.133
  C     -167.122    -323.517     364.564
  O     -167.298    -324.399     365.656
  C     -167.082    -322.041     364.912
  O     -166.350    -321.810     366.119
  C     -166.334    -321.458     363.692
  N     -167.237    -320.904     362.683
  C     -167.266    -319.508     362.591
  O     -166.560    -318.819     363.323
  N     -168.122    -318.934     361.680
  C     -168.863    -319.682     360.925
  N     -169.684    -319.049     360.046
  C     -168.849    -321.157     360.982
  C     -168.026    -321.695     361.882
  O     -162.836    -326.462     360.918
  O     -165.210    -327.209     361.565
  H     -165.525    -322.330     366.037
  H     -164.974    -328.015     361.072
  H     -169.480    -321.739     360.327
  H     -167.955    -322.771     361.986
  H     -165.643    -320.663     364.010
  H     -168.084    -321.636     365.050
  H     -167.908    -323.670     363.813
  H     -164.965    -323.746     364.696
  H     -169.669    -318.036     360.048
  H     -165.705    -325.849     363.685
  H     -170.239    -319.525     359.349
  H     -166.477    -324.981     362.341
  P     -168.613    -325.312     365.768
  C     -167.518    -327.640     365.596
  O     -168.287    -326.640     364.927
  O     -169.894    -324.629     365.414
  O     -168.562    -325.826     367.284
  H     -168.814    -325.106     367.918
  H     -167.366    -328.471     364.940
  H     -168.041    -327.967     366.470
  H     -166.571    -327.231     365.879

 6  7  8  9  10  11  12  13  14  15  16  26  30  31  32  33  35 0
 6-311+G(2d,p)
 ****
 37  38 0
 6-311+G(2d,p)
 ****
 1  2  3  4  5  17  18  19  20  21  22  23  24  25 0
 3-21G
 ****
 27  28  29  34  36  39  40  41  42  43  44  45  46 0
 3-21G
 ****


