%nproc=1
%NoSave
%Mem=1900MB
#P OB98/GEN NMR

erre ene a

0 1
  C      -64.834      11.789     -46.822
  O      -66.036      12.059     -46.113
  P      -66.319      13.566     -45.644
  C      -64.934      15.391     -44.430
  O      -65.082      14.008     -44.719
  C      -63.546      15.691     -43.865
  O      -62.542      15.164     -44.773
  C      -63.246      17.181     -43.674
  O      -62.391      17.300     -42.531
  C      -62.459      17.536     -44.921
  O      -61.680      18.716     -44.751
  C      -61.655      16.252     -45.109
  N      -57.841      17.320     -48.342
  C      -58.009      17.590     -47.030
  N      -59.052      17.272     -46.237
  C      -59.991      16.607     -46.932
  C      -59.975      16.291     -48.279
  C      -58.831      16.673     -49.001
  N      -58.653      16.390     -50.335
  N      -61.131      15.629     -48.636
  C      -61.833      15.548     -47.525
  N      -61.173      16.103     -46.465
  O      -67.520      13.389     -44.602
  O      -66.679      14.515     -46.734
  H      -62.284      19.455     -44.550
  H      -68.339      13.777     -44.969
  H      -57.193      18.126     -46.552
  H      -62.814      15.103     -47.437
  H      -60.790      16.204     -44.435
  H      -63.147      17.702     -45.758
  H      -64.138      17.804     -43.546
  H      -63.437      15.153     -42.916
  H      -65.683      15.675     -43.686
  H      -57.753      16.574     -50.746
  H      -59.294      15.747     -50.787
  H      -65.108      15.976     -45.338
  P      -62.170      18.772     -41.936
  C      -60.735      20.777     -42.737
  O      -61.495      19.641     -43.098
  O      -60.988      18.568     -40.876
  O      -63.386      19.361     -41.301
  H      -61.055      19.237     -40.170
  H      -59.918      20.898     -43.453
  H      -60.314      20.684     -41.731
  H      -61.375      21.664     -42.775
  H      -64.789      10.748     -47.064
  H      -63.994      12.050     -46.213
  H      -64.814      12.366     -47.723

 3  4  5  6  7  8  9  10  11  12  22  25  29  30  31  32 0
 6-311+G(2d,p)
 ****
 33  36  37 0
 6-311+G(2d,p)
 ****
 1  2  13  14  15  16  17  18  19  20  21  23  24  26 0
 3-21G
 ****
 27  28  34  35  38  39  40  41  42  43  44  45  46  47  48 0
 3-21G
 ****


