%nproc=1
%NoSave
%Mem=1900MB
#P OB98/GEN NMR

erre ene a

0 1
  C       31.872    -739.497     243.708
  O       30.481    -739.613     243.513
  H       32.351    -740.425     243.380
  H       32.087    -739.351     244.767
  H       32.286    -738.669     243.121
  P       29.562    -738.303     243.644
  C       29.262    -738.596     246.191
  O       29.759    -737.771     245.145
  C       29.218    -737.817     247.509
  O       28.603    -738.665     248.523
  C       30.614    -737.403     248.024
  O       30.497    -736.137     248.692
  C       30.897    -738.499     249.032
  O       31.887    -738.122     249.954
  C       29.511    -738.705     249.645
  N       29.426    -739.959     250.377
  C       29.155    -739.873     251.742
  O       28.993    -738.809     252.341
  N       29.145    -741.050     252.431
  C       29.484    -742.273     251.923
  O       29.538    -743.289     252.608
  C       29.816    -742.302     250.490
  C       29.767    -741.161     249.794
  O       28.140    -738.455     243.215
  O       30.340    -737.192     242.792
  H       32.637    -737.712     249.487
  H       29.730    -736.475     242.528
  H       28.935    -741.005     253.419
  H       30.102    -743.252     250.058
  H       30.023    -741.144     248.736
  H       29.249    -737.873     250.316
  H       31.243    -739.406     248.520
  H       31.367    -737.343     247.228
  H       28.568    -736.940     247.381
  H       29.932    -739.463     246.290
  H       28.256    -738.952     245.932
  P       31.167    -734.805     248.094
  C       33.289    -734.774     249.539
  O       32.772    -734.873     248.220
  O       30.566    -733.534     248.617
  O       30.914    -734.907     246.511
  H       30.593    -734.052     246.183
  H       34.357    -734.830     249.509
  H       32.906    -735.577     250.133
  H       32.993    -733.840     249.969

 6  7  8  9  10  11  12  13  14  15  16  26  31  32  33  34  35 0
 6-311+G(2d,p)
 ****
 36  37 0
 6-311+G(2d,p)
 ****
 1  2  3  4  5  17  18  19  20  21  22  23  24  25 0
 3-21G
 ****
 27  28  29  30  38  39  40  41  42  43  44  45 0
 3-21G
 ****


