%nproc=1
%NoSave
%Mem=1900MB
#P OB98/GEN NMR

erre ene a

0 1
  C     -239.852     766.470     123.087
  O     -238.461     766.370     123.314
  H     -240.355     766.657     124.034
  H     -240.240     765.538     122.656
  H     -240.074     767.306     122.402
  P     -237.505     766.090     122.060
  C     -237.914     763.555     122.340
  O     -236.950     764.600     122.249
  C     -237.488     762.539     123.399
  O     -236.264     761.893     123.019
  C     -237.252     763.163     124.782
  O     -238.485     763.357     125.462
  C     -236.374     762.090     125.423
  O     -237.200     760.977     125.825
  C     -235.469     761.679     124.240
  N     -230.741     762.231     125.974
  C     -231.738     761.360     126.375
  N     -231.441     760.550     127.417
  N     -232.921     761.302     125.828
  C     -233.098     762.220     124.835
  C     -232.185     763.150     124.359
  C     -230.852     763.146     124.938
  O     -229.930     763.894     124.600
  N     -232.745     763.945     123.402
  C     -233.967     763.490     123.259
  N     -234.251     762.450     124.127
  O     -236.422     767.116     121.802
  O     -238.510     765.961     120.820
  H     -237.564     760.588     125.007
  H     -238.630     766.812     120.374
  H     -229.855     762.231     126.448
  H     -234.703     763.863     122.557
  H     -235.194     760.626     124.268
  H     -235.843     762.438     126.299
  H     -230.672     760.752     128.047
  H     -236.667     764.088     124.719
  H     -232.180     759.950     127.768
  H     -238.263     761.766     123.464
  H     -237.958     763.069     121.362
  H     -238.898     763.962     122.589
  P     -238.893     764.798     126.057
  C     -237.193     764.679     127.994
  O     -238.551     764.708     127.618
  O     -240.268     765.244     125.730
  O     -237.746     765.786     125.509
  H     -237.945     766.170     124.622
  H     -237.119     764.618     129.060
  H     -236.709     765.571     127.653
  H     -236.719     763.826     127.555

 6  7  8  9  10  11  12  13  14  15  26  29  33  34 0
 6-311+G(2d,p)
 ****
 36  38  39  40  41 0
 6-311+G(2d,p)
 ****
 1  2  3  4  5  16  17  18  19  20  21  22  23  24  25 0
 3-21G
 ****
 27  28  30  31  32  35  37  42  43  44  45  46  47 0
 3-21G
 ****
 48  49 0
 3-21G
 ****


