%nproc=1
%NoSave
%Mem=1900MB
#P OB98/GEN NMR

erre ene a

0 1
  C     -172.677     -13.187    -387.995
  O     -173.058     -14.563    -387.936
  P     -173.370     -15.163    -386.480
  C     -174.673     -17.323    -387.076
  O     -173.460     -16.763    -386.593
  C     -174.744     -17.302    -388.607
  O     -173.619     -18.014    -389.190
  C     -176.021     -17.933    -389.169
  O     -176.365     -17.218    -390.358
  C     -175.569     -19.329    -389.555
  O     -176.451     -19.911    -390.513
  C     -174.146     -19.040    -390.059
  N     -173.289     -20.224    -390.081
  C     -172.938     -20.731    -391.332
  O     -173.399     -20.224    -392.359
  N     -172.106     -21.821    -391.398
  C     -171.705     -22.386    -390.303
  N     -170.885     -23.464    -390.435
  C     -172.100     -21.925    -388.959
  C     -172.882     -20.847    -388.927
  O     -174.882     -14.713    -386.209
  O     -172.450     -14.655    -385.415
  H     -175.985     -20.660    -390.943
  H     -174.953     -14.298    -385.331
  H     -171.757     -22.441    -388.075
  H     -173.222     -20.430    -387.989
  H     -174.175     -18.629    -391.077
  H     -175.539     -19.976    -388.669
  H     -176.860     -17.917    -388.470
  H     -174.675     -16.258    -388.936
  H     -170.630     -23.747    -391.374
  H     -175.524     -16.769    -386.672
  H     -170.515     -23.985    -389.651
  H     -174.769     -18.344    -386.692
  P     -177.842     -16.606    -390.474
  C     -177.157     -14.145    -390.751
  O     -177.670     -15.297    -391.390
  O     -178.032     -15.950    -389.020
  O     -178.969     -17.520    -390.810
  H     -178.936     -15.599    -388.936
  H     -176.975     -13.378    -391.507
  H     -176.210     -14.376    -390.249
  H     -177.883     -13.763    -390.029
  H     -172.498     -12.910    -389.013
  H     -171.785     -13.039    -387.423
  H     -173.463     -12.582    -387.594

 3  4  5  6  7  8  9  10  11  12  13  21  23  27  28  29  30  32 0
 6-311+G(2d,p)
 ****
 34  35 0
 6-311+G(2d,p)
 ****
 1  2  14  15  16  17  18  19  20  22  24  25  26 0
 3-21G
 ****
 31  33  36  37  38  39  40  41  42  43  44  45  46 0
 3-21G
 ****


