%nproc=1
%NoSave
%Mem=1900MB
#P OB98/GEN NMR

erre ene a

0 1
  C     -339.882     174.396     -56.288
  O     -340.676     174.925     -55.244
  H     -339.413     173.475     -55.935
  H     -339.098     175.100     -56.577
  H     -340.509     174.162     -57.152
  P     -341.248     176.416     -55.411
  C     -339.561     177.479     -53.773
  O     -339.996     177.387     -55.127
  C     -339.306     178.930     -53.371
  O     -338.208     179.488     -54.127
  C     -340.477     179.866     -53.638
  O     -341.619     179.623     -52.851
  C     -339.808     181.231     -53.579
  O     -339.659     181.705     -52.242
  C     -338.419     180.916     -54.187
  N     -338.283     181.426     -55.550
  C     -337.693     182.677     -55.678
  O     -337.318     183.354     -54.719
  N     -337.577     183.152     -56.956
  C     -338.022     182.529     -58.087
  O     -337.903     183.020     -59.203
  C     -338.672     181.225     -57.882
  C     -338.770     180.736     -56.646
  O     -342.464     176.739     -54.593
  O     -341.473     176.567     -56.986
  H     -339.178     181.014     -51.748
  H     -342.049     177.345     -57.193
  H     -337.134     184.052     -57.071
  H     -339.049     180.710     -58.757
  H     -339.245     179.772     -56.470
  H     -337.626     181.371     -53.579
  H     -340.369     181.990     -54.130
  H     -340.797     179.724     -54.679
  H     -339.020     178.948     -52.313
  H     -338.626     176.912     -53.683
  H     -340.312     177.031     -53.117
  P     -343.114     179.795     -53.377
  C     -343.544     182.323     -52.867
  O     -343.318     181.317     -53.845
  O     -344.192     179.163     -52.560
  O     -343.053     179.014     -54.793
  H     -343.929     178.599     -54.927
  H     -343.657     183.271     -53.350
  H     -342.711     182.362     -52.196
  H     -344.433     182.094     -52.318

 6  7  8  9  10  11  12  13  14  15  16  26  31  32  33  34  35 0
 6-311+G(2d,p)
 ****
 36  37 0
 6-311+G(2d,p)
 ****
 1  2  3  4  5  17  18  19  20  21  22  23  24  25 0
 3-21G
 ****
 27  28  29  30  38  39  40  41  42  43  44  45 0
 3-21G
 ****


