%nproc=1
%NoSave
%Mem=1900MB
#P OB98/GEN NMR

erre ene a

0 1
  C      259.034     -28.749      85.556
  O      260.220     -28.186      86.077
  H      258.376     -29.019      86.388
  H      259.266     -29.652      84.983
  H      258.520     -28.026      84.918
  P      261.345     -27.778      85.007
  C      262.238     -30.199      84.763
  O      262.520     -28.861      85.154
  C      262.913     -31.185      85.715
  O      262.603     -32.546      85.343
  C      264.436     -31.078      85.758
  O      264.848     -30.051      86.642
  C      264.813     -32.467      86.251
  O      264.650     -32.569      87.684
  C      263.795     -33.355      85.526
  N      263.007     -36.931      82.046
  C      262.416     -36.741      83.276
  N      261.497     -37.656      83.657
  N      262.707     -35.748      84.079
  C      263.685     -34.945      83.598
  C      264.347     -35.029      82.395
  C      263.975     -36.098      81.494
  O      264.402     -36.270      80.358
  N      265.263     -34.016      82.262
  C      265.174     -33.342      83.394
  N      264.236     -33.873      84.241
  O      261.992     -26.449      85.632
  O      260.854     -27.535      83.621
  H      263.750     -32.283      87.923
  H      262.199     -25.832      84.906
  H      262.721     -37.694      81.457
  H      265.757     -32.465      83.643
  H      263.507     -34.224      86.126
  H      265.860     -32.694      86.045
  H      261.444     -38.573      83.232
  H      264.849     -30.925      84.752
  H      261.119     -37.557      84.592
  H      262.488     -31.020      86.714
  H      262.616     -30.358      83.747
  H      261.156     -30.357      84.774
  P      266.205     -29.267      86.313
  C      267.149     -30.733      88.236
  O      267.217     -29.495      87.539
  O      265.777     -27.731      86.463
  O      266.767     -29.536      84.959
  H      265.694     -27.320      85.583
  H      267.877     -30.741      89.021
  H      267.348     -31.536      87.557
  H      266.172     -30.853      88.655

 6  7  8  9  10  11  12  13  14  15  26  29  33  34 0
 6-311+G(2d,p)
 ****
 36  38  39  40  41 0
 6-311+G(2d,p)
 ****
 1  2  3  4  5  16  17  18  19  20  21  22  23  24  25 0
 3-21G
 ****
 27  28  30  31  32  35  37  42  43  44  45  46  47 0
 3-21G
 ****
 48  49 0
 3-21G
 ****


