%nproc=1
%NoSave
%Mem=1900MB
#P OB98/GEN NMR

erre ene a

0 1
  C      -50.303      43.356     -87.759
  O      -49.760      43.304     -89.066
  H      -51.202      43.980     -87.779
  H      -49.580      43.802     -87.071
  H      -50.574      42.353     -87.421
  P      -48.412      42.451     -89.245
  C      -45.937      42.763     -88.523
  O      -47.233      43.344     -88.616
  C      -45.034      43.618     -87.640
  O      -44.724      44.873     -88.291
  C      -45.627      43.970     -86.283
  O      -45.443      42.913     -85.353
  C      -44.832      45.216     -85.921
  O      -43.535      44.878     -85.388
  C      -44.700      45.917     -87.281
  N      -45.686      50.420     -89.341
  C      -44.512      49.697     -89.298
  N      -43.422      50.289     -89.841
  N      -44.407      48.509     -88.765
  C      -45.569      48.059     -88.232
  C      -46.801      48.674     -88.225
  C      -46.908      49.975     -88.849
  O      -47.933      50.638     -88.977
  N      -47.741      47.890     -87.604
  C      -47.073      46.828     -87.204
  N      -45.745      46.890     -87.546
  O      -48.127      42.527     -90.820
  O      -48.477      41.039     -88.767
  H      -43.649      44.401     -84.550
  H      -47.675      41.710     -91.102
  H      -45.708      51.322     -89.782
  H      -47.499      45.994     -86.666
  H      -43.741      46.444     -87.382
  H      -45.338      45.811     -85.157
  H      -43.365      51.292     -89.954
  H      -46.690      44.231     -86.378
  H      -42.554      49.775     -89.795
  H      -44.086      43.076     -87.518
  H      -45.503      42.697     -89.528
  H      -46.025      41.755     -88.104
  P      -46.661      42.567     -84.365
  C      -47.829      43.792     -82.383
  O      -46.765      43.789     -83.329
  O      -46.080      41.375     -83.468
  O      -47.930      42.187     -85.047
  H      -46.813      40.904     -83.021
  H      -47.759      44.666     -81.770
  H      -47.762      42.919     -81.768
  H      -48.766      43.793     -82.900

 6  7  8  9  10  11  12  13  14  15  26  29  33  34 0
 6-311+G(2d,p)
 ****
 36  38  39  40  41 0
 6-311+G(2d,p)
 ****
 1  2  3  4  5  16  17  18  19  20  21  22  23  24  25 0
 3-21G
 ****
 27  28  30  31  32  35  37  42  43  44  45  46  47 0
 3-21G
 ****
 48  49 0
 3-21G
 ****


