%nproc=1
%NoSave
%Mem=1900MB
#P OB98/GEN NMR

erre ene a

0 1
  C      500.678     530.156    -169.889
  O      500.745     528.735    -170.040
  P      501.504     527.898    -168.891
  C      499.406     526.498    -168.265
  O      500.415     527.395    -167.818
  C      498.453     526.124    -167.118
  O      499.131     525.285    -166.139
  C      497.898     527.331    -166.353
  O      496.598     526.998    -165.864
  C      498.844     527.442    -165.181
  O      498.282     528.223    -164.119
  C      499.077     525.965    -164.870
  N      501.237     526.475    -160.341
  C      499.983     526.854    -160.777
  N      499.169     527.413    -159.855
  N      499.555     526.692    -161.999
  C      500.468     526.077    -162.799
  C      501.742     525.670    -162.490
  C      502.206     525.879    -161.133
  O      503.312     525.581    -160.699
  N      502.368     525.111    -163.582
  C      501.478     525.201    -164.546
  N      500.292     525.742    -164.116
  O      502.307     529.038    -168.100
  O      502.424     526.850    -169.417
  H      498.273     529.157    -164.419
  H      503.259     528.956    -168.294
  H      501.511     526.639    -159.383
  H      501.627     524.884    -165.564
  H      498.253     525.533    -164.285
  H      499.785     527.927    -165.496
  H      499.405     527.522    -158.881
  H      497.838     528.253    -166.939
  H      498.232     527.663    -160.134
  H      497.623     525.535    -167.535
  H      499.858     525.589    -168.673
  H      498.867     526.961    -169.096
  P      495.370     527.145    -166.891
  C      493.758     525.137    -166.569
  O      494.898     525.651    -167.235
  O      496.069     527.628    -168.241
  O      494.292     528.082    -166.440
  H      495.437     528.117    -168.795
  H      492.903     525.155    -167.254
  H      493.509     525.702    -165.670
  H      493.958     524.093    -166.285
  H      500.150     530.578    -170.718
  H      501.669     530.558    -169.855
  H      500.165     530.394    -168.981

 3  4  5  6  7  8  9  10  11  12  23  26  30  31 0
 6-311+G(2d,p)
 ****
 33  35  36  37  38 0
 6-311+G(2d,p)
 ****
 1  2  13  14  15  16  17  18  19  20  21  22  24  25 0
 3-21G
 ****
 27  28  29  32  34  39  40  41  42  43  44  45  46  47  48  49 0
 3-21G
 ****


