%nproc=1
%NoSave
%Mem=1900MB
#P OB98/GEN NMR

erre ene a

0 1
  C      -89.073      40.261    -209.212
  O      -87.749      40.556    -208.770
  P      -86.705      41.458    -209.570
  C      -85.392      42.654    -207.641
  O      -85.411      41.656    -208.651
  C      -84.365      42.375    -206.531
  O      -84.740      41.170    -205.815
  C      -82.983      42.107    -207.135
  O      -82.138      43.187    -207.483
  C      -82.340      41.097    -206.194
  O      -81.524      41.717    -205.196
  C      -83.545      40.407    -205.544
  N      -81.977      35.548    -205.206
  C      -81.453      36.677    -204.610
  N      -80.340      36.504    -203.865
  N      -81.965      37.873    -204.744
  C      -83.023      37.918    -205.584
  C      -83.621      36.871    -206.252
  C      -83.083      35.541    -206.047
  O      -83.517      34.508    -206.541
  N      -84.663      37.301    -207.033
  C      -84.679      38.607    -206.864
  N      -83.705      39.032    -205.983
  O      -87.267      42.679    -210.218
  O      -86.192      40.476    -210.744
  H      -81.025      41.018    -204.740
  H      -85.999      41.044    -211.518
  H      -81.556      34.648    -205.049
  H      -85.372      39.290    -207.340
  H      -83.439      40.374    -204.454
  H      -81.685      40.414    -206.751
  H      -79.830      35.637    -203.820
  H      -83.145      41.566    -208.075
  H      -79.830      37.353    -203.607
  H      -84.363      43.176    -205.789
  H      -86.403      42.701    -207.223
  H      -85.197      43.631    -208.085
  P      -81.628      43.554    -208.957
  C      -81.799      45.982    -208.152
  O      -81.063      45.050    -208.927
  O      -82.978      43.709    -209.807
  O      -80.721      42.546    -209.581
  H      -82.784      43.675    -210.761
  H      -81.515      46.995    -208.449
  H      -81.569      45.842    -207.094
  H      -82.875      45.855    -208.312
  H      -89.559      39.638    -208.491
  H      -89.030      39.752    -210.152
  H      -89.623      41.172    -209.324

 3  4  5  6  7  8  9  10  11  12  23  26  30  31 0
 6-311+G(2d,p)
 ****
 33  35  36  37  38 0
 6-311+G(2d,p)
 ****
 1  2  13  14  15  16  17  18  19  20  21  22  24  25 0
 3-21G
 ****
 27  28  29  32  34  39  40  41  42  43  44  45  46  47  48  49 0
 3-21G
 ****


