%nproc=1
%NoSave
%Mem=1900MB
#P OB98/GEN NMR

erre ene a

0 1
  C      184.982     -43.640     706.811
  O      185.233     -43.979     705.463
  H      184.122     -44.216     707.164
  H      184.747     -42.576     706.888
  H      185.843     -43.876     707.445
  P      186.605     -43.507     704.786
  C      187.700     -45.828     705.068
  O      187.761     -44.442     705.398
  C      189.114     -46.399     704.874
  O      189.831     -46.308     706.143
  C      189.132     -47.877     704.440
  O      190.304     -48.066     703.635
  C      189.285     -48.590     705.769
  O      189.719     -49.918     705.596
  C      190.256     -47.643     706.491
  N      190.262     -47.858     707.935
  C      191.406     -48.435     708.471
  O      192.362     -48.807     707.785
  N      191.404     -48.639     709.826
  C      190.365     -48.370     710.669
  O      190.404     -48.604     711.872
  C      189.163     -47.796     710.045
  C      189.167     -47.558     708.726
  O      186.891     -42.041     704.853
  O      186.503     -44.025     703.274
  H      189.072     -50.425     705.062
  H      186.996     -43.432     702.684
  H      192.231     -49.052     710.229
  H      188.320     -47.574     710.679
  H      188.303     -47.136     708.235
  H      191.277     -47.786     706.118
  H      188.327     -48.629     706.301
  H      188.236     -48.173     703.893
  H      189.652     -45.769     704.161
  H      187.132     -45.932     704.141
  H      187.185     -46.370     705.870
  P      190.253     -48.007     702.025
  C      190.400     -45.471     701.549
  O      189.554     -46.624     701.590
  O      189.665     -49.221     701.385
  O      191.782     -47.808     701.585
  H      191.916     -48.191     700.690
  H      189.827     -44.619     701.249
  H      191.191     -45.634     700.847
  H      190.815     -45.298     702.520

 6  7  8  9  10  11  12  13  14  15  16  26  31  32  33  34  35 0
 6-311+G(2d,p)
 ****
 36  37 0
 6-311+G(2d,p)
 ****
 1  2  3  4  5  17  18  19  20  21  22  23  24  25 0
 3-21G
 ****
 27  28  29  30  38  39  40  41  42  43  44  45 0
 3-21G
 ****


