%nproc=1
%NoSave
%Mem=1900MB
#P OB98/GEN NMR

erre ene a

0 1
  C     -415.390     545.640     260.666
  O     -414.918     546.622     261.567
  H     -414.948     544.679     260.934
  H     -415.096     545.891     259.640
  H     -416.480     545.559     260.738
  P     -415.410     548.129     261.313
  C     -415.186     549.778     259.342
  O     -414.825     548.503     259.858
  C     -414.495     550.013     257.987
  O     -413.083     550.196     258.213
  C     -414.664     548.842     257.005
  O     -414.785     549.364     255.677
  C     -413.348     548.094     257.138
  O     -413.058     547.305     255.988
  C     -412.377     549.245     257.378
  N     -408.083     546.582     256.682
  C     -409.028     547.023     255.819
  N     -410.131     547.754     256.094
  C     -410.181     548.074     257.404
  C     -409.298     547.696     258.400
  C     -408.204     546.908     258.002
  N     -407.261     546.423     258.869
  N     -409.719     548.187     259.625
  C     -410.831     548.842     259.371
  N     -411.163     548.784     258.039
  O     -415.089     549.104     262.394
  O     -416.972     547.922     261.014
  H     -413.216     547.855     255.184
  H     -417.120     547.188     260.388
  H     -408.882     546.744     254.778
  H     -411.441     549.374     260.106
  H     -412.077     549.755     256.459
  H     -413.378     547.421     258.003
  H     -415.521     548.205     257.238
  H     -414.877     550.946     257.563
  H     -414.883     550.569     260.044
  H     -406.503     545.865     258.494
  H     -407.322     546.656     259.853
  H     -416.275     549.808     259.233
  P     -416.031     548.909     254.784
  C     -416.557     547.171     252.933
  O     -415.561     547.725     253.792
  O     -416.792     550.016     254.120
  O     -416.970     548.135     255.833
  H     -417.900     548.374     255.674
  H     -416.121     546.402     252.331
  H     -416.950     547.939     252.300
  H     -417.347     546.757     253.524

 6  7  8  9  10  11  12  13  14  15  25  28  32  33  34  35 0
 6-311+G(2d,p)
 ****
 36  39  40 0
 6-311+G(2d,p)
 ****
 1  2  3  4  5  16  17  18  19  20  21  22  23  24 0
 3-21G
 ****
 26  27  29  30  31  37  38  41  42  43  44  45  46  47 0
 3-21G
 ****
 48 0
 3-21G
 ****


