%nproc=1
%NoSave
%Mem=1900MB
#P OB98/GEN NMR

erre ene a

0 1
  C      -88.711     -43.331     -87.589
  O      -89.001     -44.529     -86.898
  H      -88.394     -42.577     -86.863
  H      -89.598     -42.962     -88.111
  H      -87.898     -43.491     -88.303
  P      -89.600     -45.761     -87.726
  C      -89.738     -48.242     -87.009
  O      -89.987     -46.889     -86.656
  C      -90.443     -49.198     -86.039
  O      -89.844     -49.056     -84.720
  C      -91.950     -48.928     -85.887
  O      -92.580     -50.181     -85.590
  C      -91.969     -48.017     -84.676
  O      -93.263     -47.895     -84.142
  C      -90.902     -48.690     -83.807
  N      -90.426     -47.828     -82.737
  C      -91.127     -47.898     -81.530
  O      -92.096     -48.649     -81.417
  N      -90.733     -47.095     -80.491
  C      -89.768     -46.247     -80.664
  N      -89.436     -45.469     -79.599
  C      -89.040     -46.099     -81.941
  C      -89.415     -46.916     -82.924
  O      -88.769     -46.241     -88.869
  O      -91.027     -45.233     -88.226
  H      -93.873     -47.476     -84.791
  H      -90.984     -45.016     -89.176
  H      -88.256     -45.364     -82.040
  H      -88.940     -46.882     -83.900
  H      -91.287     -49.617     -83.363
  H      -91.648     -47.007     -84.949
  H      -92.395     -48.483     -86.779
  H      -90.257     -50.229     -86.364
  H      -89.968     -45.596     -78.746
  H      -88.657     -48.399     -86.968
  H      -88.718     -44.761     -79.621
  H      -90.083     -48.435     -88.030
  P      -93.653     -50.868     -86.563
  C      -93.852     -53.137     -87.775
  O      -93.381     -52.446     -86.621
  O      -93.759     -50.219     -87.905
  O      -95.049     -50.761     -85.783
  H      -95.773     -50.688     -86.433
  H      -93.610     -54.176     -87.692
  H      -93.387     -52.731     -88.649
  H      -94.913     -53.023     -87.850

 6  7  8  9  10  11  12  13  14  15  16  26  30  31  32  33  35 0
 6-311+G(2d,p)
 ****
 37  38 0
 6-311+G(2d,p)
 ****
 1  2  3  4  5  17  18  19  20  21  22  23  24  25 0
 3-21G
 ****
 27  28  29  34  36  39  40  41  42  43  44  45  46 0
 3-21G
 ****


