%nproc=1
%NoSave
%Mem=1900MB
#P OB98/GEN NMR

erre ene a

0 1
  C     -111.674     163.880     259.123
  O     -111.872     165.060     259.914
  P     -112.724     166.326     259.416
  C     -114.522     165.927     261.235
  O     -113.609     166.848     260.650
  C     -115.537     166.655     262.120
  O     -116.551     165.732     262.585
  C     -114.970     167.259     263.396
  O     -114.201     168.421     263.150
  C     -116.245     167.506     264.201
  O     -116.855     168.754     263.842
  C     -117.145     166.335     263.759
  N     -117.347     165.349     264.809
  C     -118.374     165.606     265.720
  O     -119.005     166.662     265.668
  N     -118.648     164.665     266.682
  C     -117.896     163.614     266.789
  N     -118.227     162.707     267.748
  C     -116.719     163.374     265.934
  C     -116.507     164.270     264.972
  O     -113.516     166.073     258.175
  O     -111.653     167.494     259.190
  H     -111.992     168.121     258.524
  H     -117.799     168.689     264.085
  H     -116.094     162.506     266.083
  H     -115.672     164.163     264.288
  H     -118.119     166.712     263.427
  H     -116.053     167.540     265.278
  H     -114.357     166.507     263.911
  H     -116.022     167.431     261.513
  H     -119.045     162.898     268.311
  H     -113.955     165.221     261.853
  H     -117.722     161.846     267.899
  H     -115.026     165.365     260.442
  P     -112.898     168.636     264.059
  C     -111.102     167.968     262.308
  O     -111.679     169.000     263.085
  O     -112.550     167.161     264.576
  O     -113.089     169.578     265.202
  H     -112.249     167.200     265.501
  H     -110.674     168.409     261.405
  H     -111.842     167.216     262.022
  H     -110.303     167.492     262.881
  H     -111.075     163.181     259.669
  H     -111.177     164.141     258.212
  H     -112.622     163.438     258.898

 3  4  5  6  7  8  9  10  11  12  13  24  27  28  29  30  32 0
 6-311+G(2d,p)
 ****
 34  35 0
 6-311+G(2d,p)
 ****
 1  2  14  15  16  17  18  19  20  21  22  23  25  26 0
 3-21G
 ****
 31  33  36  37  38  39  40  41  42  43  44  45  46 0
 3-21G
 ****


