%nproc=1
%NoSave
%Mem=1900MB
#P OB98/GEN NMR

erre ene a

0 1
  C      141.187      78.802    -192.749
  O      140.968      77.699    -191.894
  H      140.226      79.274    -192.965
  H      141.628      78.457    -193.687
  H      141.843      79.538    -192.275
  P      142.261      77.063    -191.186
  C      140.682      76.170    -189.330
  O      141.729      75.877    -190.244
  C      139.870      74.914    -189.037
  O      139.317      74.375    -190.257
  C      140.668      73.785    -188.392
  O      140.774      73.958    -186.985
  C      139.791      72.591    -188.730
  O      138.647      72.562    -187.848
  C      139.340      72.922    -190.159
  N      140.216      69.002    -193.253
  C      139.265      69.153    -192.264
  N      138.434      68.108    -192.066
  N      139.140      70.229    -191.531
  C      140.055      71.183    -191.824
  C      141.050      71.147    -192.774
  C      141.165      69.959    -193.588
  O      141.984      69.780    -194.485
  N      141.784      72.303    -192.780
  C      141.250      73.028    -191.818
  N      140.199      72.392    -191.204
  O      142.694      78.207    -190.150
  O      143.381      76.712    -192.105
  H      138.974      72.757    -186.951
  H      143.458      78.691    -190.517
  H      140.275      68.148    -193.781
  H      141.579      74.017    -191.532
  H      138.327      72.563    -190.369
  H      140.310      71.639    -188.606
  H      138.488      67.243    -192.579
  H      141.652      73.664    -188.861
  H      137.725      68.199    -191.348
  H      139.025      75.203    -188.398
  H      140.030      76.933    -189.768
  H      141.117      76.558    -188.404
  P      142.199      73.702    -186.295
  C      142.404      76.142    -185.443
  O      142.336      74.766    -185.099
  O      143.225      74.243    -187.396
  O      142.485      72.286    -185.932
  H      143.727      73.497    -187.778
  H      142.493      76.728    -184.552
  H      141.515      76.423    -185.968
  H      143.256      76.312    -186.068

 6  7  8  9  10  11  12  13  14  15  26  29  33  34 0
 6-311+G(2d,p)
 ****
 36  38  39  40  41 0
 6-311+G(2d,p)
 ****
 1  2  3  4  5  16  17  18  19  20  21  22  23  24  25 0
 3-21G
 ****
 27  28  30  31  32  35  37  42  43  44  45  46  47 0
 3-21G
 ****
 48  49 0
 3-21G
 ****


