%nproc=1
%NoSave
%Mem=1900MB
#P OB98/GEN NMR

erre ene a

0 1
  C      -71.007     382.264     273.517
  O      -71.841     382.055     272.401
  H      -70.313     381.429     273.637
  H      -70.420     383.178     273.350
  H      -71.609     382.391     274.421
  P      -72.755     380.732     272.420
  C      -71.236     379.271     270.905
  O      -71.777     379.466     272.207
  C      -70.476     377.958     270.857
  O      -71.233     376.965     271.636
  C      -70.280     377.370     269.426
  O      -68.883     377.187     269.170
  C      -70.948     376.010     269.462
  O      -70.211     374.995     268.783
  C      -71.053     375.700     270.969
  N      -72.516     370.827     270.922
  C      -71.296     371.390     270.957
  N      -70.971     372.694     271.080
  C      -72.080     373.444     271.197
  C      -73.397     373.020     271.203
  C      -73.616     371.636     271.035
  N      -74.872     371.073     270.939
  N      -74.269     374.091     271.310
  C      -73.486     375.151     271.352
  N      -72.159     374.816     271.253
  O      -73.562     380.819     271.038
  O      -73.679     380.626     273.591
  H      -70.298     375.176     267.824
  H      -74.517     380.660     271.208
  H      -70.459     370.693     270.869
  H      -73.808     376.189     271.401
  H      -70.126     375.237     271.356
  H      -71.943     376.083     269.019
  H      -70.730     378.002     268.656
  H      -69.514     378.073     271.350
  H      -70.550     380.088     270.662
  H      -74.916     370.093     270.709
  H      -75.677     371.678     270.921
  H      -72.059     379.293     270.176
  P      -68.157     378.318     268.282
  C      -68.315     376.730     266.216
  O      -68.544     378.043     266.753
  O      -66.617     377.894     268.356
  O      -68.387     379.710     268.770
  H      -66.047     378.687     268.236
  H      -68.622     376.705     265.191
  H      -68.879     376.013     266.775
  H      -67.273     376.494     266.282

 6  7  8  9  10  11  12  13  14  15  25  28  32  33  34  35 0
 6-311+G(2d,p)
 ****
 36  39  40 0
 6-311+G(2d,p)
 ****
 1  2  3  4  5  16  17  18  19  20  21  22  23  24 0
 3-21G
 ****
 26  27  29  30  31  37  38  41  42  43  44  45  46  47  48 0
 3-21G
 ****


