%nproc=1
%NoSave
%Mem=1900MB
#P OB98/GEN NMR

erre ene a

0 1
  C       -3.501     -60.056     116.890
  O       -2.585     -59.642     117.906
  P       -3.235     -59.055     119.251
  C       -2.247     -58.229     121.503
  O       -2.068     -58.356     120.100
  C       -0.937     -57.823     122.181
  O       -0.041     -58.936     122.356
  C       -0.154     -56.775     121.402
  O       -0.705     -55.489     121.627
  C        1.244     -56.938     121.983
  O        1.393     -56.193     123.209
  C        1.321     -58.448     122.260
  N        5.273     -61.520     121.466
  C        4.922     -60.802     122.593
  N        5.725     -60.942     123.669
  N        3.877     -60.019     122.659
  C        3.164     -59.977     121.509
  C        3.395     -60.663     120.339
  C        4.557     -61.523     120.278
  O        4.897     -62.196     119.312
  N        2.418     -60.411     119.409
  C        1.673     -59.479     119.974
  N        2.045     -59.227     121.272
  O       -3.593     -60.369     120.091
  O       -4.442     -58.212     119.008
  H        1.130     -55.268     123.052
  H       -4.561     -60.484     120.128
  H        6.093     -62.101     121.468
  H        0.844     -58.977     119.501
  H        1.804     -58.654     123.223
  H        2.013     -56.564     121.302
  H        6.544     -61.530     123.689
  H       -0.149     -57.025     120.334
  H        5.481     -60.430     124.507
  H       -1.190     -57.432     123.176
  H       -2.602     -59.172     121.922
  H       -3.031     -57.487     121.691
  P       -1.541     -54.814     120.438
  C       -3.555     -53.187     120.269
  O       -2.605     -53.821     121.102
  O       -2.434     -56.026     119.889
  O       -0.706     -54.226     119.350
  H       -2.423     -56.024     118.914
  H       -4.463     -53.002     120.849
  H       -3.807     -53.801     119.401
  H       -3.151     -52.229     119.929
  H       -2.955     -60.427     116.047
  H       -4.100     -59.222     116.588
  H       -4.133     -60.829     117.274

 3  4  5  6  7  8  9  10  11  12  23  26  30  31 0
 6-311+G(2d,p)
 ****
 33  35  36  37  38 0
 6-311+G(2d,p)
 ****
 1  2  13  14  15  16  17  18  19  20  21  22  24  25 0
 3-21G
 ****
 27  28  29  32  34  39  40  41  42  43  44  45  46  47  48  49 0
 3-21G
 ****


