%nproc=1
%NoSave
%Mem=1900MB
#P OB98/GEN NMR

erre ene a

0 1
  C        9.958    -311.428    -149.149
  O       10.971    -311.583    -150.117
  P       12.399    -312.188    -149.712
  C       11.328    -314.470    -149.198
  O       12.105    -313.391    -148.690
  C       11.878    -315.799    -148.689
  O       12.996    -316.245    -149.501
  C       12.443    -315.739    -147.278
  O       11.537    -315.491    -146.227
  C       13.236    -317.034    -147.219
  O       12.390    -318.149    -146.944
  C       13.791    -317.120    -148.664
  N       15.212    -316.783    -148.722
  C       16.081    -317.706    -148.153
  O       15.711    -318.754    -147.625
  N       17.408    -317.373    -148.181
  C       17.934    -316.212    -148.670
  O       19.131    -315.959    -148.621
  C       16.965    -315.268    -149.242
  C       15.667    -315.588    -149.244
  O       13.395    -311.190    -149.224
  O       12.855    -312.969    -151.033
  H       12.965    -318.923    -146.787
  H       12.253    -313.681    -151.313
  H       18.054    -318.023    -147.762
  H       17.351    -314.342    -149.649
  H       14.934    -314.907    -149.660
  H       13.665    -318.136    -149.061
  H       14.001    -317.008    -146.438
  H       13.170    -314.917    -147.238
  H       11.093    -316.553    -148.780
  H       11.375    -314.459    -150.291
  H       10.280    -314.335    -148.907
  P       11.960    -314.817    -144.836
  C       11.306    -312.578    -145.967
  O       12.179    -313.248    -145.084
  O       12.988    -315.535    -144.028
  O       10.566    -314.831    -144.037
  H       10.749    -314.923    -143.083
  H       11.627    -311.535    -146.049
  H       10.283    -312.597    -145.581
  H       11.341    -313.032    -146.960
  H        9.086    -311.012    -149.609
  H       10.301    -310.772    -148.376
  H        9.718    -312.382    -148.727

 3  4  5  6  7  8  9  10  11  12  13  23  28  29  30  31  32 0
 6-311+G(2d,p)
 ****
 33  34 0
 6-311+G(2d,p)
 ****
 1  2  14  15  16  17  18  19  20  21  22  24  25  26  27 0
 3-21G
 ****
 35  36  37  38  39  40  41  42  43  44  45 0
 3-21G
 ****


