%nproc=1
%NoSave
%Mem=1900MB
#P OB98/GEN NMR

erre ene a

0 1
  C     -148.383    -322.689    -378.579
  O     -148.815    -324.033    -378.639
  P     -149.031    -324.882    -377.297
  C     -149.647    -326.880    -378.807
  O     -148.856    -326.425    -377.717
  C     -149.197    -328.270    -379.248
  O     -147.908    -328.208    -379.917
  C     -148.980    -329.244    -378.099
  O     -150.120    -329.638    -377.354
  C     -148.190    -330.342    -378.785
  O     -149.045    -331.226    -379.512
  C     -147.304    -329.524    -379.765
  N     -145.921    -329.438    -379.308
  C     -145.099    -330.514    -379.637
  O     -145.491    -331.493    -380.277
  N     -143.814    -330.442    -379.186
  C     -143.284    -329.449    -378.404
  O     -142.131    -329.477    -377.993
  C     -144.205    -328.343    -378.072
  C     -145.457    -328.389    -378.529
  O     -150.283    -324.581    -376.548
  O     -147.685    -324.601    -376.467
  H     -149.341    -331.924    -378.896
  H     -146.864    -324.872    -376.921
  H     -143.206    -331.219    -379.398
  H     -143.817    -327.536    -377.473
  H     -146.152    -327.590    -378.302
  H     -147.309    -329.989    -380.765
  H     -147.629    -330.954    -378.073
  H     -148.302    -328.774    -377.373
  H     -149.922    -328.648    -379.980
  H     -149.526    -326.182    -379.646
  H     -150.708    -326.876    -378.517
  P     -150.034    -330.244    -375.873
  C     -152.250    -331.562    -376.151
  O     -150.874    -331.608    -375.845
  O     -150.236    -329.288    -374.740
  O     -148.524    -330.786    -375.831
  H     -148.187    -330.722    -374.919
  H     -152.668    -332.568    -376.039
  H     -152.402    -331.240    -377.190
  H     -152.779    -330.881    -375.469
  H     -148.299    -322.297    -379.571
  H     -147.430    -322.642    -378.095
  H     -149.093    -322.110    -378.026

 3  4  5  6  7  8  9  10  11  12  13  23  28  29  30  31  32 0
 6-311+G(2d,p)
 ****
 33  34 0
 6-311+G(2d,p)
 ****
 1  2  14  15  16  17  18  19  20  21  22  24  25  26  27 0
 3-21G
 ****
 35  36  37  38  39  40  41  42  43  44  45 0
 3-21G
 ****


