%nproc=1
%NoSave
%Mem=1900MB
#P OB98/GEN NMR

erre ene a

0 1
  C      -38.916      21.218      35.733
  O      -38.050      22.151      36.344
  P      -38.383      22.883      37.724
  C      -37.031      23.890      39.701
  O      -37.001      23.394      38.367
  C      -35.679      24.456      40.160
  O      -34.697      23.401      40.176
  C      -35.176      25.499      39.158
  O      -35.633      26.835      39.230
  C      -33.662      25.339      39.146
  O      -33.001      26.299      39.972
  C      -33.450      23.925      39.692
  N      -29.606      22.895      36.553
  C      -29.659      23.800      37.595
  N      -28.624      24.664      37.681
  N      -30.647      23.863      38.450
  C      -31.653      22.999      38.176
  C      -31.707      22.048      37.184
  C      -30.592      21.963      36.271
  O      -30.544      21.232      35.285
  N      -32.915      21.402      37.162
  C      -33.611      21.987      38.116
  N      -32.901      22.990      38.732
  O      -39.384      22.220      38.613
  O      -39.041      24.261      37.200
  H      -32.041      26.171      39.871
  H      -39.731      24.517      37.841
  H      -28.854      22.947      35.877
  H      -34.635      21.749      38.375
  H      -32.766      23.941      40.549
  H      -33.266      25.480      38.133
  H      -27.923      24.739      36.958
  H      -35.502      25.164      38.165
  H      -28.709      25.444      38.322
  H      -35.736      24.825      41.188
  H      -37.346      23.068      40.350
  H      -37.792      24.672      39.781
  P      -35.798      27.851      38.007
  C      -37.172      29.955      37.530
  O      -37.099      28.747      38.266
  O      -36.244      26.923      36.780
  O      -34.566      28.619      37.656
  H      -36.033      27.368      35.938
  H      -37.912      30.611      37.994
  H      -37.484      29.738      36.503
  H      -36.204      30.464      37.515
  H      -38.477      20.867      34.823
  H      -39.853      21.688      35.519
  H      -39.074      20.392      36.394

 3  4  5  6  7  8  9  10  11  12  23  26  30  31 0
 6-311+G(2d,p)
 ****
 33  35  36  37  38 0
 6-311+G(2d,p)
 ****
 1  2  13  14  15  16  17  18  19  20  21  22  24  25 0
 3-21G
 ****
 27  28  29  32  34  39  40  41  42  43  44  45  46  47  48  49 0
 3-21G
 ****


