%nproc=1
%NoSave
%Mem=1900MB
#P OB98/GEN NMR

erre ene a

0 1
  C     -155.198     703.352    -139.547
  O     -155.875     702.266    -140.139
  H     -154.999     703.112    -138.500
  H     -155.819     704.251    -139.589
  H     -154.247     703.533    -140.055
  P     -156.247     702.397    -141.698
  C     -154.474     700.677    -142.521
  O     -154.888     702.037    -142.479
  C     -153.355     700.490    -143.546
  O     -153.822     700.931    -144.844
  C     -152.087     701.280    -143.213
  O     -150.942     700.462    -143.454
  C     -152.119     702.455    -144.175
  O     -150.816     702.965    -144.448
  C     -152.866     701.870    -145.375
  N     -153.520     702.901    -146.170
  C     -152.704     703.653    -147.026
  O     -151.495     703.437    -147.074
  N     -153.267     704.661    -147.764
  C     -154.519     704.943    -147.613
  N     -155.016     705.968    -148.360
  C     -155.415     704.211    -146.692
  C     -154.851     703.210    -146.014
  O     -156.396     703.975    -141.903
  O     -157.443     701.611    -142.134
  H     -150.896     703.637    -145.158
  H     -156.828     704.190    -142.761
  H     -156.450     704.491    -146.591
  H     -155.429     702.620    -145.311
  H     -152.173     701.311    -146.025
  H     -152.708     703.270    -143.726
  H     -152.065     701.625    -142.180
  H     -153.142     699.418    -143.638
  H     -154.376     706.453    -148.977
  H     -155.334     700.052    -142.794
  H     -155.971     706.295    -148.303
  H     -154.116     700.378    -141.531
  P     -150.625     699.355    -142.336
  C     -151.144     697.165    -143.619
  O     -151.569     698.084    -142.625
  O     -151.233     699.988    -140.998
  O     -149.171     699.041    -142.205
  H     -150.533     700.403    -140.466
  H     -151.861     696.376    -143.705
  H     -150.195     696.755    -143.344
  H     -151.055     697.671    -144.558

 6  7  8  9  10  11  12  13  14  15  16  26  30  31  32  33  35 0
 6-311+G(2d,p)
 ****
 37  38 0
 6-311+G(2d,p)
 ****
 1  2  3  4  5  17  18  19  20  21  22  23  24  25 0
 3-21G
 ****
 27  28  29  34  36  39  40  41  42  43  44  45  46 0
 3-21G
 ****


