%nproc=1
%NoSave
%Mem=1900MB
#P OB98/GEN NMR

erre ene a

0 1
  C      112.042      49.906    -160.162
  O      112.640      49.923    -161.461
  P      111.962      48.989    -162.582
  C      113.779      47.171    -162.928
  O      113.127      48.318    -163.461
  C      115.146      46.936    -163.585
  O      115.010      46.157    -164.802
  C      115.878      48.232    -163.954
  O      117.278      47.992    -163.785
  C      115.578      48.381    -165.437
  O      116.530      49.230    -166.067
  C      115.606      46.905    -165.879
  N      114.921      46.678    -167.151
  C      115.649      46.908    -168.316
  O      116.801      47.354    -168.256
  N      115.057      46.669    -169.533
  C      113.816      46.289    -169.576
  N      113.278      46.066    -170.806
  C      112.987      46.086    -168.365
  C      113.599      46.291    -167.206
  O      111.288      50.043    -163.581
  O      110.951      48.038    -162.031
  H      116.253      49.356    -167.001
  H      110.361      49.796    -163.755
  H      111.954      45.778    -168.451
  H      113.079      46.172    -166.266
  H      116.646      46.558    -165.992
  H      114.577      48.804    -165.583
  H      115.571      49.090    -163.352
  H      115.761      46.356    -162.887
  H      113.880      46.206    -171.607
  H      113.152      46.292    -163.080
  H      112.330      45.769    -170.954
  H      113.878      47.290    -161.846
  P      118.149      49.085    -163.010
  C      119.497      49.241    -165.195
  O      119.557      49.114    -163.779
  O      118.549      48.284    -161.675
  O      117.521      50.400    -162.693
  H      119.029      48.876    -161.070
  H      120.510      49.374    -165.575
  H      118.895      50.112    -165.473
  H      119.070      48.335    -165.631
  H      112.581      50.563    -159.512
  H      112.073      48.912    -159.768
  H      111.025      50.230    -160.233

 3  4  5  6  7  8  9  10  11  12  13  21  23  27  28  29  30  32 0
 6-311+G(2d,p)
 ****
 34  35 0
 6-311+G(2d,p)
 ****
 1  2  14  15  16  17  18  19  20  22  24  25  26 0
 3-21G
 ****
 31  33  36  37  38  39  40  41  42  43  44  45  46 0
 3-21G
 ****


