%nproc=1
%NoSave
%Mem=1900MB
#P OB98/GEN NMR

erre ene a

0 1
  C       53.181     -42.521      -4.420
  O       52.266     -43.437      -4.987
  P       52.417     -45.018      -4.770
  C       53.862     -44.950      -6.896
  O       53.743     -45.442      -5.569
  C       54.405     -46.023      -7.841
  O       55.780     -46.336      -7.484
  C       53.613     -47.338      -7.837
  O       53.678     -47.851      -9.173
  C       54.427     -48.205      -6.895
  O       54.157     -49.592      -7.054
  C       55.851     -47.760      -7.250
  N       56.808     -48.099      -6.200
  C       57.535     -49.279      -6.372
  O       57.303     -50.019      -7.331
  N       58.470     -49.624      -5.427
  C       58.589     -48.906      -4.355
  N       59.535     -49.292      -3.458
  C       57.753     -47.724      -4.076
  C       56.901     -47.372      -5.038
  O       51.204     -45.823      -5.094
  O       52.879     -45.147      -3.243
  H       53.185     -49.724      -7.016
  H       52.106     -45.020      -2.638
  H       57.848     -47.190      -3.143
  H       56.247     -46.518      -4.925
  H       56.181     -48.230      -8.184
  H       54.193     -47.937      -5.856
  H       52.575     -47.224      -7.517
  H       54.423     -45.601      -8.855
  H       60.096     -50.100      -3.695
  H       54.561     -44.108      -6.884
  H       59.764     -48.759      -2.631
  H       52.895     -44.576      -7.246
  P       52.490     -48.733      -9.785
  C       53.934     -50.796     -10.239
  O       52.850     -50.266      -9.498
  O       52.139     -48.423     -11.204
  O       51.250     -48.460      -8.807
  H       50.425     -48.749      -9.240
  H       54.261     -51.730      -9.770
  H       54.774     -50.097     -10.262
  H       53.610     -51.008     -11.261
  H       52.899     -41.524      -4.686
  H       54.164     -42.724      -4.790
  H       53.173     -42.622      -3.355

 3  4  5  6  7  8  9  10  11  12  13  23  27  28  29  30  32 0
 6-311+G(2d,p)
 ****
 34  35 0
 6-311+G(2d,p)
 ****
 1  2  14  15  16  17  18  19  20  21  22  24  25  26 0
 3-21G
 ****
 31  33  36  37  38  39  40  41  42  43  44  45  46 0
 3-21G
 ****


