%nproc=1
%NoSave
%Mem=1900MB
#P OB98/GEN NMR

erre ene a

0 1
  C      740.152    -897.260    -850.321
  O      741.285    -896.590    -849.792
  H      740.445    -898.290    -850.566
  H      739.812    -896.770    -851.235
  H      739.360    -897.280    -849.586
  P      741.181    -895.010    -849.501
  C      740.792    -895.230    -846.963
  O      740.208    -894.860    -848.231
  C      739.696    -895.400    -845.899
  O      739.126    -894.060    -845.651
  C      738.525    -896.340    -846.287
  O      738.137    -897.040    -845.140
  C      737.477    -895.350    -846.746
  O      736.179    -895.920    -846.675
  C      737.708    -894.150    -845.835
  N      737.138    -892.910    -846.410
  C      735.899    -892.560    -845.990
  O      735.291    -893.210    -845.128
  N      735.294    -891.440    -846.565
  C      735.887    -890.800    -847.527
  N      735.239    -889.790    -848.088
  C      737.225    -891.220    -848.051
  C      737.786    -892.240    -847.451
  O      740.814    -894.160    -850.661
  O      742.638    -894.640    -848.925
  H      735.961    -896.140    -845.745
  H      743.214    -894.360    -849.667
  H      737.692    -890.680    -848.850
  H      738.787    -892.660    -847.765
  H      737.229    -894.300    -844.866
  H      737.664    -895.070    -847.802
  H      738.839    -897.020    -847.120
  H      740.187    -895.720    -844.974
  H      734.304    -889.530    -847.717
  H      741.496    -894.490    -846.693
  H      735.595    -889.230    -848.872
  H      741.310    -896.190    -847.070
  P      738.441    -898.600    -845.009
  C      740.015    -898.700    -842.965
  O      739.919    -898.800    -844.385
  O      738.155    -899.420    -846.222
  O      737.497    -899.080    -843.783
  H      737.238    -900.000    -843.936
  H      741.031    -898.848    -842.665
  H      739.397    -899.447    -842.512
  H      739.689    -897.730    -842.653

 6  7  8  9  10  11  12  13  14  15  16  26  30  31  32  33  35 0
 6-311+G(2d,p)
 ****
 37  38 0
 6-311+G(2d,p)
 ****
 1  2  3  4  5  17  18  19  20  21  22  23  24  25 0
 3-21G
 ****
 27  28  29  34  36  39  40  41  42  43  44  45  46 0
 3-21G
 ****


