%nproc=1
%NoSave
%Mem=1900MB
#P OB98/GEN NMR

erre ene a

0 1
  C     -897.800     409.627    -184.051
  O     -897.080     409.832    -185.280
  P     -896.770     408.694    -186.347
  C     -897.090     410.137    -188.509
  O     -896.200     409.400    -187.676
  C     -896.530     410.327    -189.944
  O     -895.570     411.403    -189.975
  C     -895.790     409.049    -190.381
  O     -896.500     407.959    -190.928
  C     -894.670     409.588    -191.293
  O     -895.060     409.573    -192.670
  C     -894.470     411.023    -190.793
  N     -889.380     410.409    -190.862
  C     -890.320     409.994    -191.787
  N     -889.850     409.284    -192.846
  N     -891.600     410.233    -191.678
  C     -891.940     410.882    -190.553
  C     -891.110     411.331    -189.541
  C     -889.680     411.108    -189.691
  O     -888.810     411.471    -188.908
  N     -891.820     411.933    -188.521
  C     -893.070     411.812    -188.897
  N     -893.220     411.194    -190.114
  O     -897.830     407.651    -186.530
  O     -895.460     407.960    -185.723
  H     -895.420     408.699    -192.875
  H     -895.520     407.024    -185.987
  H     -888.400     410.222    -190.996
  H     -893.930     412.176    -188.321
  H     -894.480     411.723    -191.655
  H     -893.790     408.955    -191.208
  H     -888.900     408.964    -192.919
  H     -895.270     408.659    -189.510
  H     -890.560     408.800    -193.400
  H     -897.330     410.608    -190.628
  H     -897.250     411.110    -188.040
  H     -898.060     409.644    -188.554
  P     -897.090     406.725    -190.078
  C     -899.230     406.681    -191.528
  O     -898.120     405.923    -191.040
  O     -898.090     407.432    -189.020
  O     -896.090     405.880    -189.391
  H     -898.320     406.814    -188.315
  H     -900.000     405.976    -191.905
  H     -898.900     407.308    -192.373
  H     -899.670     407.316    -190.751
  H     -897.869     410.553    -183.519
  H     -897.283     408.908    -183.450
  H     -898.784     409.268    -184.270

 3  4  5  6  7  8  9  10  11  12  23  26  30  31 0
 6-311+G(2d,p)
 ****
 33  35  36  37  38 0
 6-311+G(2d,p)
 ****
 1  2  13  14  15  16  17  18  19  20  21  22  24  25 0
 3-21G
 ****
 27  28  29  32  34  39  40  41  42  43  44  45  46  47  48  49 0
 3-21G
 ****


