%nproc=1
%NoSave
%Mem=1900MB
#P OB98/GEN NMR

erre ene a

0 1
  C     -829.865    -234.818    -587.860
  O     -829.689    -235.199    -586.509
  H     -829.422    -235.585    -588.499
  H     -829.358    -233.866    -588.049
  H     -830.930    -234.725    -588.096
  P     -830.415    -234.294    -585.403
  C     -828.592    -235.215    -583.747
  O     -829.947    -234.838    -583.962
  C     -828.474    -236.036    -582.463
  O     -828.822    -235.252    -581.314
  C     -829.430    -237.221    -582.400
  O     -829.064    -238.259    -583.282
  C     -829.313    -237.586    -580.933
  O     -828.118    -238.335    -580.674
  C     -829.235    -236.183    -580.272
  N     -830.486    -235.786    -579.647
  C     -830.523    -235.874    -578.252
  O     -829.535    -236.256    -577.626
  N     -831.693    -235.556    -577.607
  C     -832.722    -235.163    -578.290
  N     -833.855    -234.868    -577.589
  C     -832.720    -235.030    -579.758
  C     -831.582    -235.370    -580.368
  O     -831.931    -234.788    -585.490
  O     -830.230    -232.822    -585.566
  H     -828.070    -239.023    -581.366
  H     -832.037    -235.746    -585.403
  H     -833.598    -234.691    -580.287
  H     -831.496    -235.300    -581.443
  H     -828.446    -236.165    -579.504
  H     -830.156    -238.198    -580.596
  H     -830.458    -236.882    -582.589
  H     -827.429    -236.354    -582.360
  H     -833.826    -234.991    -576.582
  H     -827.943    -234.335    -583.708
  H     -834.726    -234.588    -578.016
  H     -828.276    -235.818    -584.609
  P     -830.192    -239.107    -584.054
  C     -828.083    -240.474    -584.624
  O     -829.409    -240.132    -585.012
  O     -831.242    -238.294    -584.737
  O     -830.763    -240.082    -582.919
  H     -830.102    -240.681    -582.517
  H     -827.669    -241.158    -585.335
  H     -828.101    -240.932    -583.657
  H     -827.482    -239.589    -584.588

 6  7  8  9  10  11  12  13  14  15  16  26  30  31  32  33  35 0
 6-311+G(2d,p)
 ****
 37  38 0
 6-311+G(2d,p)
 ****
 1  2  3  4  5  17  18  19  20  21  22  23  24  25 0
 3-21G
 ****
 27  28  29  34  36  39  40  41  42  43  44  45  46 0
 3-21G
 ****


