%nproc=1
%NoSave
%Mem=1900MB
#P OB98/GEN NMR

erre ene a

0 1
  C      -16.595     154.653       2.274
  O      -17.651     155.214       1.485
  P      -18.084     156.721       1.847
  C      -19.045     157.238      -0.510
  O      -19.303     157.133       0.885
  C      -19.185     155.889      -1.219
  O      -20.423     155.260      -0.808
  C      -19.208     155.967      -2.750
  O      -18.512     154.828      -3.278
  C      -20.677     155.798      -3.088
  O      -20.874     155.328      -4.418
  C      -21.100     154.819      -1.996
  N      -25.403     152.404      -3.101
  C      -24.100     152.068      -3.407
  N      -23.921     150.941      -4.129
  N      -23.063     152.773      -3.037
  C      -23.390     153.857      -2.292
  C      -24.642     154.290      -1.915
  C      -25.780     153.521      -2.367
  O      -26.963     153.796      -2.174
  N      -24.570     155.435      -1.160
  C      -23.281     155.699      -1.091
  N      -22.526     154.775      -1.768
  O      -16.853     157.591       1.310
  O      -18.316     156.947       3.303
  H      -20.424     155.957      -5.014
  H      -16.487     158.133       2.035
  H      -26.165     151.836      -3.428
  H      -22.843     156.550      -0.589
  H      -20.759     153.801      -2.221
  H      -21.187     156.763      -2.986
  H      -24.669     150.318      -4.390
  H      -18.784     156.888      -3.163
  H      -22.970     150.654      -4.324
  H      -18.366     155.241      -0.885
  H      -18.032     157.620      -0.662
  H      -19.743     157.965      -0.940
  P      -17.080     155.112      -3.943
  C      -15.521     153.308      -2.904
  O      -16.334     153.696      -3.994
  O      -16.295     155.913      -2.802
  O      -17.142     155.868      -5.228
  H      -15.617     156.491      -3.200
  H      -15.652     153.961      -2.037
  H      -14.473     153.339      -3.214
  H      -15.778     152.285      -2.617
  H      -16.395     153.655       1.944
  H      -16.888     154.637       3.303
  H      -15.713     155.248       2.164

 3  4  5  6  7  8  9  10  11  12  23  26  30  31  33  0
 6-311+G(2d,p)
 ****
 35  36  37  38 0
 6-311+G(2d,p)
 ****
 1  2  13  14  15  16  17  18  19  20  21  22  24  25  27  28  29 0
 3-21G
 ****
 32  34  39  40  41  42  43  44  45  46  47  48  49 0
 3-21G
 ****


