%nproc=1
%NoSave
%Mem=1900MB
#P OB98/GEN NMR

erre ene a

0 1
  C       59.364    -172.414     -22.381
  O       58.362    -172.641     -21.392
  P       58.332    -173.875     -20.383
  C       59.824    -173.412     -18.267
  O       58.552    -173.326     -18.897
  C       59.775    -172.833     -16.844
  O       59.431    -171.417     -16.926
  C       58.708    -173.508     -15.972
  O       59.142    -173.770     -14.642
  C       57.505    -172.594     -16.142
  O       56.535    -172.739     -15.114
  C       58.163    -171.222     -16.258
  N       53.938    -168.353     -16.271
  C       54.324    -169.339     -15.385
  N       53.471    -169.614     -14.375
  N       55.441    -170.010     -15.487
  C       56.165    -169.693     -16.583
  C       55.881    -168.746     -17.542
  C       54.667    -167.973     -17.390
  O       54.288    -167.073     -18.136
  N       56.860    -168.700     -18.503
  C       57.722    -169.628     -18.138
  N       57.347    -170.254     -16.972
  O       59.134    -175.067     -20.785
  O       56.779    -174.319     -20.370
  H       56.958    -172.496     -14.270
  H       56.773    -175.287     -20.227
  H       53.078    -167.852     -16.131
  H       58.632    -169.878     -18.669
  H       58.365    -170.778     -15.280
  H       57.014    -172.866     -17.086
  H       52.543    -169.224     -14.308
  H       58.460    -174.503     -16.360
  H       53.651    -170.480     -13.865
  H       60.771    -172.915     -16.397
  H       60.508    -172.820     -18.885
  H       60.186    -174.441     -18.264
  P       59.653    -175.146     -14.011
  C       61.854    -176.010     -15.007
  O       61.254    -175.160     -14.047
  O       59.262    -176.265     -15.086
  O       59.061    -175.479     -12.679
  H       58.637    -176.903     -14.686
  H       62.911    -176.131     -14.756
  H       61.774    -175.557     -15.998
  H       61.373    -176.992     -15.009
  H       59.139    -171.516     -22.917
  H       59.387    -173.239     -23.062
  H       60.318    -172.317     -21.906

 3  4  5  6  7  8  9  10  11  12  23  26  30  31 0
 6-311+G(2d,p)
 ****
 33  35  36  37  38 0
 6-311+G(2d,p)
 ****
 1  2  13  14  15  16  17  18  19  20  21  22  24  25 0
 3-21G
 ****
 27  28  29  32  34  39  40  41  42  43  44  45  46  47  48  49 0
 3-21G
 ****


