%nproc=1
%NoSave
%Mem=1900MB
#P OB98/GEN NMR

erre ene a

0 1
  C     -234.113    -226.577     459.577
  O     -233.116    -226.698     458.586
  H     -234.534    -225.567     459.536
  H     -233.665    -226.726     460.563
  H     -234.915    -227.301     459.418
  P     -232.645    -228.181     458.196
  C     -233.378    -228.320     455.711
  O     -233.648    -228.698     457.052
  C     -234.425    -227.321     455.216
  O     -234.390    -226.145     456.079
  C     -234.211    -226.846     453.771
  O     -235.486    -226.674     453.143
  C     -233.584    -225.477     453.957
  O     -233.771    -224.638     452.823
  C     -234.312    -225.000     455.209
  N     -234.204    -219.987     455.431
  C     -235.131    -220.841     454.870
  N     -236.165    -220.275     454.207
  N     -235.055    -222.148     454.944
  C     -233.978    -222.580     455.650
  C     -232.990    -221.840     456.250
  C     -233.079    -220.397     456.146
  O     -232.277    -219.591     456.602
  N     -232.040    -222.656     456.812
  C     -232.447    -223.884     456.538
  N     -233.618    -223.888     455.831
  O     -233.070    -229.032     459.484
  O     -231.192    -228.329     457.887
  H     -234.725    -224.435     452.743
  H     -232.312    -229.112     460.093
  H     -234.301    -218.994     455.332
  H     -231.930    -224.792     456.805
  H     -235.335    -224.664     454.995
  H     -232.507    -225.577     454.141
  H     -236.310    -219.283     454.135
  H     -233.590    -227.522     453.168
  H     -236.875    -220.888     453.826
  H     -235.421    -227.772     455.332
  H     -233.409    -229.211     455.075
  H     -232.377    -227.881     455.653
  P     -236.232    -227.978     452.582
  C     -238.167    -228.337     454.288
  O     -236.893    -228.759     453.814
  O     -235.018    -228.933     452.154
  O     -237.146    -227.706     451.433
  H     -235.268    -229.454     451.368
  H     -238.466    -228.957     455.108
  H     -238.886    -228.418     453.499
  H     -238.107    -227.319     454.613

 6  7  8  9  10  11  12  13  14  15  26  29  33  34 0
 6-311+G(2d,p)
 ****
 36  38  39  40  41 0
 6-311+G(2d,p)
 ****
 1  2  3  4  5  16  17  18  19  20  21  22  23  24  25 0
 3-21G
 ****
 27  28  30  31  32  35  37  42  43  44  45  46  47 0
 3-21G
 ****
 48  49 0
 3-21G
 ****


