%nproc=1
%NoSave
%Mem=1900MB
#P OB98/GEN NMR

erre ene a

0 1
  C      -93.170      28.120    -120.510
  O      -93.073      29.526    -120.405
  H      -92.818      27.673    -119.576
  H      -92.539      27.763    -121.328
  H      -94.205      27.809    -120.677
  P      -93.770      30.437    -121.524
  C      -95.061      31.812    -119.763
  O      -94.117      31.839    -120.825
  C      -95.536      33.229    -119.424
  O      -94.470      33.912    -118.696
  C      -95.874      34.090    -120.659
  O      -96.929      34.984    -120.280
  C      -94.568      34.839    -120.856
  O      -94.717      35.928    -121.728
  C      -94.220      35.147    -119.397
  N      -92.847      35.599    -119.208
  C      -92.520      36.865    -119.679
  O      -93.322      37.624    -120.224
  N      -91.212      37.240    -119.518
  C      -90.227      36.488    -118.949
  O      -89.074      36.881    -118.810
  C      -90.628      35.145    -118.495
  C      -91.899      34.769    -118.642
  O      -94.900      29.804    -122.264
  O      -92.564      30.817    -122.507
  H      -92.569      30.220    -123.278
  H      -93.864      36.400    -121.839
  H      -90.956      38.155    -119.855
  H      -89.865      34.517    -118.059
  H      -92.231      33.787    -118.321
  H      -94.905      35.897    -118.985
  H      -93.817      34.180    -121.302
  H      -96.186      33.496    -121.521
  H      -96.393      33.162    -118.744
  H      -94.578      31.362    -118.889
  H      -95.916      31.192    -120.057
  P      -98.486      34.628    -120.448
  C      -99.385      36.305    -118.709
  O      -99.370      35.916    -120.075
  O      -98.901      33.394    -119.715
  O      -98.717      34.449    -122.022
  H      -99.374      33.743    -122.173
  H     -100.005      37.169    -118.591
  H      -98.389      36.534    -118.393
  H      -99.773      35.504    -118.114

 6  7  8  9  10  11  12  13  14  15  16  27  31  32  33  34  35 0
 6-311+G(2d,p)
 ****
 36  37 0
 6-311+G(2d,p)
 ****
 1  2  3  4  5  17  18  19  20  21  22  23  24  25 0
 3-21G
 ****
 26  28  29  30  38  39  40  41  42  43  44  45 0
 3-21G
 ****


