%nproc=1
%NoSave
%Mem=1900MB
#P OB98/GEN NMR

erre ene a

0 1
  C     -136.033     193.259     469.721
  O     -135.718     192.679     470.969
  H     -136.397     194.275     469.884
  H     -136.819     192.681     469.223
  H     -135.146     193.299     469.080
  P     -135.079     191.209     470.946
  C     -136.096     189.699     472.793
  O     -135.112     190.672     472.458
  C     -136.563     189.881     474.238
  O     -135.572     189.307     475.133
  C     -136.755     191.353     474.658
  O     -137.863     191.407     475.565
  C     -135.490     191.647     475.437
  O     -135.639     192.750     476.328
  C     -135.274     190.299     476.127
  N     -132.237     191.555     479.943
  C     -133.581     191.812     479.743
  N     -134.216     192.511     480.708
  N     -134.241     191.410     478.690
  C     -133.493     190.696     477.827
  C     -132.157     190.377     477.900
  C     -131.429     190.845     479.058
  O     -130.236     190.667     479.280
  N     -131.755     189.656     476.797
  C     -132.851     189.540     476.064
  N     -133.924     190.154     476.643
  O     -133.525     191.506     470.684
  O     -135.648     190.276     469.924
  H     -134.866     192.748     476.945
  H     -133.331     191.464     469.730
  H     -131.777     191.894     480.763
  H     -132.902     189.035     475.110
  H     -135.952     190.153     476.977
  H     -134.663     191.874     474.754
  H     -133.779     192.807     481.570
  H     -136.923     192.040     473.827
  H     -135.210     192.671     480.603
  H     -137.490     189.314     474.373
  H     -135.655     188.702     472.681
  H     -136.942     189.796     472.108
  P     -139.063     192.420     475.225
  C     -139.695     192.863     477.720
  O     -140.111     192.376     476.448
  O     -139.855     191.659     474.058
  O     -138.622     193.781     474.801
  H     -140.303     192.309     473.485
  H     -140.499     192.766     478.420
  H     -139.419     193.893     477.635
  H     -138.854     192.296     478.061

 6  7  8  9  10  11  12  13  14  15  26  29  33  34 0
 6-311+G(2d,p)
 ****
 36  38  39  40  41 0
 6-311+G(2d,p)
 ****
 1  2  3  4  5  16  17  18  19  20  21  22  23  24  25 0
 3-21G
 ****
 27  28  30  31  32  35  37  42  43  44  45  46  47 0
 3-21G
 ****
 48  49 0
 3-21G
 ****


