%nproc=1
%NoSave
%Mem=1900MB
#P OB98/GEN NMR

erre ene a

0 1
  C     -179.714     -29.556      -0.315
  O     -180.399     -30.548      -1.049
  P     -180.064     -30.822      -2.591
  C     -177.989     -31.789      -3.771
  O     -178.468     -30.992      -2.694
  C     -176.646     -31.246      -4.277
  O     -176.877     -29.952      -4.918
  C     -175.620     -31.037      -3.144
  O     -174.355     -31.661      -3.371
  C     -175.586     -29.524      -2.999
  O     -174.415     -29.034      -2.374
  C     -175.846     -29.067      -4.437
  N     -176.238     -27.662      -4.517
  C     -175.250     -26.714      -4.267
  O     -174.082     -26.980      -3.997
  N     -175.659     -25.410      -4.273
  C     -176.943     -24.972      -4.384
  O     -177.251     -23.792      -4.282
  C     -177.948     -26.023      -4.608
  C     -177.558     -27.297      -4.687
  O     -180.640     -29.841      -3.555
  O     -180.573     -32.325      -2.809
  H     -174.472     -28.061      -2.349
  H     -180.144     -32.990      -2.241
  H     -174.953     -24.711      -4.092
  H     -178.980     -25.708      -4.691
  H     -178.277     -28.093      -4.850
  H     -174.969     -29.216      -5.069
  H     -176.432     -29.231      -2.365
  H     -175.972     -31.484      -2.208
  H     -176.266     -31.942      -5.029
  H     -178.717     -31.755      -4.585
  H     -177.899     -32.833      -3.451
  P     -173.388     -32.217      -2.226
  C     -173.469     -34.149      -0.486
  O     -174.175     -33.348      -1.413
  O     -172.732     -31.174      -1.382
  O     -172.289     -33.055      -3.037
  H     -171.446     -33.046      -2.550
  H     -173.963     -35.122      -0.417
  H     -173.499     -33.672       0.498
  H     -172.430     -34.298      -0.790
  H     -180.085     -29.534       0.688
  H     -179.870     -28.602      -0.774
  H     -178.668     -29.780      -0.303

 3  4  5  6  7  8  9  10  11  12  13  23  28  29  30  31  32 0
 6-311+G(2d,p)
 ****
 33  34 0
 6-311+G(2d,p)
 ****
 1  2  14  15  16  17  18  19  20  21  22  24  25  26  27 0
 3-21G
 ****
 35  36  37  38  39  40  41  42  43  44  45 0
 3-21G
 ****


