%nproc=1
%NoSave
%Mem=1900MB
#P OB98/GEN NMR

erre ene a

0 1
  C       36.871    -155.606      41.137
  O       36.069    -155.104      40.068
  P       34.477    -155.033      40.255
  C       34.016    -157.354      39.252
  O       33.906    -156.527      40.403
  C       32.711    -158.098      38.939
  O       32.319    -158.946      40.052
  C       31.520    -157.180      38.627
  O       30.735    -157.839      37.626
  C       30.783    -157.145      39.950
  O       29.440    -156.707      39.813
  C       30.968    -158.594      40.408
  N       30.723    -158.766      41.830
  C       29.394    -158.850      42.245
  O       28.484    -158.676      41.434
  N       29.133    -159.098      43.571
  C       30.110    -159.107      44.424
  N       29.814    -159.377      45.724
  C       31.511    -158.842      44.046
  C       31.745    -158.707      42.745
  O       33.753    -154.177      39.271
  O       34.321    -154.451      41.743
  H       28.971    -156.845      40.663
  H       33.529    -153.880      41.776
  H       32.279    -158.779      44.803
  H       32.739    -158.517      42.367
  H       30.299    -159.267      39.854
  H       31.293    -156.458      40.637
  H       31.817    -156.194      38.257
  H       32.898    -158.756      38.081
  H       28.845    -159.532      45.972
  H       34.815    -158.084      39.412
  H       30.525    -159.453      46.439
  H       34.332    -156.740      38.401
  P       30.917    -157.409      36.090
  C       29.252    -155.440      36.419
  O       30.519    -155.863      35.960
  O       29.660    -158.134      35.399
  O       32.183    -157.844      35.429
  H       29.860    -158.283      34.455
  H       29.262    -154.351      36.515
  H       29.017    -155.872      37.394
  H       28.482    -155.723      35.694
  H       37.902    -155.585      40.850
  H       36.582    -156.612      41.357
  H       36.730    -154.996      42.005

 3  4  5  6  7  8  9  10  11  12  13  23  27  28  29  30  32 0
 6-311+G(2d,p)
 ****
 34  35 0
 6-311+G(2d,p)
 ****
 1  2  14  15  16  17  18  19  20  21  22  24  25  26 0
 3-21G
 ****
 31  33  36  37  38  39  40  41  42  43  44  45  46 0
 3-21G
 ****


