%nproc=1
%NoSave
%Mem=1900MB
#P OB98/GEN NMR

erre ene a

0 1
  C      -63.472      15.306     -91.059
  O      -62.095      15.103     -91.391
  P      -61.216      16.401     -91.721
  C      -59.344      15.161     -93.041
  O      -59.691      15.949     -91.907
  C      -57.995      14.478     -92.815
  O      -58.063      13.540     -91.726
  C      -57.526      13.667     -94.012
  O      -56.993      14.513     -95.010
  C      -56.499      12.735     -93.381
  O      -55.182      13.311     -93.393
  C      -57.016      12.574     -91.934
  N      -57.475      11.225     -91.648
  C      -56.556      10.201     -91.893
  O      -55.439      10.463     -92.346
  N      -56.933       8.905     -91.643
  C      -58.130       8.656     -91.212
  N      -58.448       7.353     -90.987
  C      -59.140       9.707     -90.968
  C      -58.749      10.957     -91.205
  O      -61.199      17.197     -90.332
  O      -61.767      17.240     -92.829
  H      -54.947      13.407     -94.338
  H      -61.171      18.156     -90.492
  H      -60.127       9.447     -90.615
  H      -59.426      11.792     -91.055
  H      -56.221      12.817     -91.217
  H      -56.432      11.788     -93.924
  H      -58.361      13.079     -94.415
  H      -57.251      15.249     -92.571
  H      -57.733       6.659     -91.169
  H      -59.299      15.788     -93.934
  H      -59.353       7.045     -90.659
  H      -60.136      14.424     -93.214
  P      -57.425      14.245     -96.527
  C      -55.007      14.040     -97.366
  O      -56.204      14.793     -97.412
  O      -58.537      15.376     -96.765
  O      -57.933      12.884     -96.864
  H      -58.954      15.258     -97.636
  H      -54.342      14.393     -98.158
  H      -55.211      12.980     -97.526
  H      -54.514      14.187     -96.402
  H      -63.935      14.361     -90.864
  H      -63.969      15.784     -91.877
  H      -63.542      15.924     -90.188

 3  4  5  6  7  8  9  10  11  12  13  21  23  27  28  29  30  32 0
 6-311+G(2d,p)
 ****
 34  35 0
 6-311+G(2d,p)
 ****
 1  2  14  15  16  17  18  19  20  22  24  25  26 0
 3-21G
 ****
 31  33  36  37  38  39  40  41  42  43  44  45  46 0
 3-21G
 ****


