%nproc=1
%NoSave
%Mem=1900MB
#P OB98/GEN NMR

erre ene a

0 1
  C      171.179     179.170     353.942
  O      172.110     180.027     354.579
  H      171.355     179.201     352.864
  H      170.159     179.502     354.147
  H      171.314     178.142     354.294
  P      171.948     180.208     356.167
  C      171.218     182.695     355.850
  O      170.870     181.395     356.298
  C      170.012     183.620     355.932
  O      168.986     183.215     354.997
  C      169.323     183.642     357.295
  O      170.018     184.422     358.264
  C      167.997     184.273     356.914
  O      168.175     185.684     356.689
  C      167.694     183.524     355.591
  N      166.907     182.305     355.788
  C      165.676     182.451     356.446
  O      165.299     183.553     356.832
  N      164.923     181.327     356.679
  C      165.339     180.167     356.272
  N      164.543     179.091     356.536
  C      166.616     179.968     355.570
  C      167.346     181.066     355.361
  O      173.313     180.921     356.597
  O      171.621     178.971     356.937
  H      167.324     186.027     356.372
  H      173.255     181.215     357.543
  H      166.931     178.981     355.261
  H      168.299     181.002     354.852
  H      167.163     184.182     354.892
  H      167.228     184.166     357.683
  H      169.142     182.629     357.671
  H      170.338     184.628     355.641
  H      163.705     179.249     357.073
  H      171.560     182.616     354.804
  H      164.848     178.139     356.399
  H      172.033     183.097     356.452
  P      170.011     183.884     359.781
  C      168.098     185.582     360.289
  O      168.574     184.241     360.388
  O      170.993     184.903     360.527
  O      170.443     182.462     359.943
  H      171.493     184.452     361.233
  H      167.130     185.651     360.740
  H      168.032     185.862     359.258
  H      168.775     186.239     360.794

 6  7  8  9  10  11  12  13  14  15  16  26  30  31  32  33  35 0
 6-311+G(2d,p)
 ****
 37  38 0
 6-311+G(2d,p)
 ****
 1  2  3  4  5  17  18  19  20  21  22  23  24  25 0
 3-21G
 ****
 27  28  29  34  36  39  40  41  42  43  44  45  46 0
 3-21G
 ****


