%nproc=1
%NoSave
%Mem=1900MB
#P OB98/GEN NMR

erre ene a

0 1
  C       40.482    -890.900     467.502
  O       41.270    -891.410     468.553
  H       40.161    -889.890     467.764
  H       39.588    -891.520     467.357
  H       41.063    -890.860     466.576
  P       41.811    -892.920     468.382
  C       43.969    -891.570     467.991
  O       43.241    -892.740     467.670
  C       45.309    -891.550     467.244
  O       46.132    -892.620     467.752
  C       45.170    -891.730     465.734
  O       46.122    -890.910     465.062
  C       45.523    -893.190     465.520
  O       46.014    -893.450     464.205
  C       46.554    -893.430     466.627
  N       49.248    -897.730     466.093
  C       49.494    -896.450     465.706
  N       48.715    -895.370     465.908
  C       47.625    -895.680     466.619
  C       47.245    -896.930     467.070
  C       48.112    -897.990     466.780
  N       47.864    -899.290     467.138
  N       46.021    -896.860     467.735
  C       45.691    -895.580     467.686
  N       46.616    -894.840     467.014
  O       40.873    -893.870     467.712
  O       42.213    -893.290     469.885
  H       45.313    -893.230     463.558
  H       42.689    -892.560     470.318
  H       50.417    -896.280     465.167
  H       44.785    -895.140     468.112
  H       47.565    -893.120     466.343
  H       44.635    -893.820     465.673
  H       44.165    -891.510     465.376
  H       45.832    -890.600     467.487
  H       44.154    -891.520     469.073
  H       48.554    -900.000     466.896
  H       47.030    -899.510     467.671
  H       43.363    -890.710     467.702
  P       45.579    -889.820     464.016
  C       46.766    -887.870     465.224
  O       45.522    -888.380     464.737
  O       44.359    -890.200     463.253
  O       46.830    -889.650     463.023
  H       46.515    -889.540     462.108
  H       46.606    -886.915     465.680
  H       47.452    -887.766     464.410
  H       47.170    -888.547     465.947

 6  7  8  9  10  11  12  13  14  15  25  28  32  33  34  35 0
 6-311+G(2d,p)
 ****
 36  39  40 0
 6-311+G(2d,p)
 ****
 1  2  3  4  5  16  17  18  19  20  21  22  23  24 0
 3-21G
 ****
 26  27  29  30  31  37  38  41  42  43  44  45  46  47 0
 3-21G
 ****
 48 0
 3-21G
 ****


