%nproc=1
%NoSave
%Mem=1900MB
#P OB98/GEN NMR

erre ene a

0 1
  C     -110.939    -768.477     102.627
  O     -109.686    -768.355     101.998
  H     -110.808    -768.784     103.671
  H     -111.443    -767.504     102.606
  H     -111.559    -769.207     102.101
  P     -108.762    -769.673     101.954
  C     -109.956    -770.907     100.010
  O     -108.783    -770.217     100.438
  C     -110.045    -770.866      98.485
  O     -110.413    -769.520      98.078
  C     -108.750    -771.253      97.750
  O     -108.980    -772.356      96.877
  C     -108.417    -770.028      96.901
  O     -107.938    -770.359      95.599
  C     -109.741    -769.276      96.839
  N     -108.512    -765.730      93.376
  C     -109.018    -766.974      93.241
  N     -109.424    -767.832      94.203
  C     -109.292    -767.273      95.418
  C     -108.812    -766.007      95.719
  C     -108.389    -765.224      94.625
  N     -107.826    -763.974      94.774
  N     -108.818    -765.797      97.088
  C     -109.247    -766.921      97.610
  N     -109.528    -767.855      96.643
  O     -109.632    -770.754     102.762
  O     -107.401    -769.505     102.547
  H     -107.906    -769.524      95.090
  H     -109.067    -771.205     103.412
  H     -109.101    -767.335      92.220
  H     -109.329    -767.143      98.655
  H     -110.383    -769.640      96.023
  H     -107.648    -769.435      97.416
  H     -107.933    -771.486      98.438
  H     -110.865    -771.534      98.172
  H     -110.844    -770.416     100.433
  H     -107.445    -763.534      93.957
  H     -107.637    -763.634      95.711
  H     -109.913    -771.933     100.366
  P     -107.959    -773.604      97.002
  C     -109.316    -775.583      98.012
  O     -108.824    -774.946      96.845
  O     -107.574    -773.591      98.556
  O     -106.756    -773.487      96.123
  H     -106.691    -773.985      98.680
  H     -109.868    -776.457      97.736
  H     -109.956    -774.910      98.543
  H     -108.495    -775.863      98.639

 6  7  8  9  10  11  12  13  14  15  25  28  32  33  34  35 0
 6-311+G(2d,p)
 ****
 36  39  40 0
 6-311+G(2d,p)
 ****
 1  2  3  4  5  16  17  18  19  20  21  22  23  24 0
 3-21G
 ****
 26  27  29  30  31  37  38  41  42  43  44  45  46  47  48 0
 3-21G
 ****


