%nproc=1
%NoSave
%Mem=1900MB
#P OB98/GEN NMR

erre ene a

0 1
  C       -2.277     162.654    -254.968
  O       -1.019     163.306    -255.001
  P        0.086     163.056    -253.861
  C        0.353     165.626    -253.960
  O        1.003     164.371    -253.864
  C        1.320     166.687    -254.492
  O        2.137     167.164    -253.391
  C        2.268     166.183    -255.588
  O        2.481     167.270    -256.498
  C        3.538     165.873    -254.820
  O        4.691     165.863    -255.650
  C        3.517     166.986    -253.766
  N        4.342     166.672    -252.604
  C        5.714     166.520    -252.803
  O        6.206     166.625    -253.927
  N        6.511     166.251    -251.718
  C        5.972     166.064    -250.553
  N        6.809     165.859    -249.499
  C        4.517     166.107    -250.319
  C        3.775     166.434    -251.373
  O        0.834     161.774    -253.986
  O       -0.718     163.215    -252.491
  H        4.665     166.655    -256.221
  H       -1.167     162.380    -252.208
  H        4.115     165.915    -249.335
  H        2.700     166.514    -251.290
  H        3.848     167.932    -254.209
  H        3.451     164.886    -254.354
  H        1.865     165.327    -256.135
  H        0.733     167.539    -254.856
  H        7.798     166.009    -249.666
  H        0.024     165.922    -252.959
  H        6.501     166.029    -248.548
  H       -0.528     165.539    -254.602
  P        3.225     166.964    -257.887
  C        5.536     167.879    -257.145
  O        4.445     167.991    -258.033
  O        2.170     167.544    -258.952
  O        3.509     165.528    -258.187
  H        2.292     167.082    -259.802
  H        6.270     168.650    -257.396
  H        6.013     166.900    -257.245
  H        5.207     168.030    -256.114
  H       -2.859     162.958    -255.813
  H       -2.792     162.917    -254.068
  H       -2.131     161.595    -254.998

 3  4  5  6  7  8  9  10  11  12  13  23  27  28  29  30  32 0
 6-311+G(2d,p)
 ****
 34  35 0
 6-311+G(2d,p)
 ****
 1  2  14  15  16  17  18  19  20  21  22  24  25  26 0
 3-21G
 ****
 31  33  36  37  38  39  40  41  42  43  44  45  46 0
 3-21G
 ****


