%nproc=1
%NoSave
%Mem=1900MB
#P OB98/GEN NMR

erre ene a

0 1
  C      236.912    -211.704     824.209
  O      236.648    -210.995     823.016
  H      237.711    -212.427     824.018
  H      236.018    -212.244     824.525
  H      237.239    -211.028     825.007
  P      235.734    -209.681     823.082
  C      237.615    -207.970     823.532
  O      236.482    -208.654     824.066
  C      237.737    -206.565     824.142
  O      237.931    -206.701     825.585
  C      238.921    -205.748     823.594
  O      238.538    -204.368     823.638
  C      239.997    -206.030     824.622
  O      241.041    -205.088     824.550
  C      239.166    -206.028     825.913
  N      239.866    -206.676     827.020
  C      240.413    -205.839     827.983
  O      240.375    -204.607     827.911
  N      241.072    -206.454     829.016
  C      241.273    -207.795     829.143
  O      241.902    -208.292     830.071
  C      240.708    -208.637     828.076
  C      240.030    -208.049     827.081
  O      234.292    -209.909     823.399
  O      235.926    -208.993     821.648
  H      241.458    -205.100     823.664
  H      235.122    -208.507     821.400
  H      241.470    -205.856     829.724
  H      240.850    -209.703     828.139
  H      239.597    -208.636     826.280
  H      238.928    -205.001     826.215
  H      240.442    -207.019     824.456
  H      239.205    -206.038     822.581
  H      236.788    -206.037     824.001
  H      237.482    -207.889     822.450
  H      238.519    -208.550     823.743
  P      238.236    -203.522     822.300
  C      235.709    -203.284     822.780
  O      236.701    -203.770     821.875
  O      239.221    -203.743     821.198
  O      238.246    -201.989     822.782
  H      238.511    -201.416     822.031
  H      234.736    -203.505     822.394
  H      235.816    -202.225     822.892
  H      235.832    -203.758     823.732

 6  7  8  9  10  11  12  13  14  15  16  26  31  32  33  34  35 0
 6-311+G(2d,p)
 ****
 36  37 0
 6-311+G(2d,p)
 ****
 1  2  3  4  5  17  18  19  20  21  22  23  24  25 0
 3-21G
 ****
 27  28  29  30  38  39  40  41  42  43  44  45 0
 3-21G
 ****


