%nproc=1
%NoSave
%Mem=1900MB
#P OB98/GEN NMR

erre ene a

0 1
  C     -684.125     -24.537    -437.748
  O     -684.610     -24.921    -436.470
  P     -685.358     -23.942    -435.446
  C     -684.207     -25.111    -433.399
  O     -685.404     -24.658    -434.016
  C     -684.453     -25.949    -432.125
  O     -685.324     -25.215    -431.227
  C     -685.196     -27.242    -432.479
  O     -684.469     -28.373    -432.945
  C     -686.076     -27.518    -431.275
  O     -685.454     -28.405    -430.334
  C     -686.271     -26.135    -430.650
  N     -691.138     -26.308    -429.091
  C     -690.069     -27.078    -428.686
  N     -690.330     -28.061    -427.795
  N     -688.855     -26.918    -429.140
  C     -688.750     -25.965    -430.095
  C     -689.739     -25.147    -430.591
  C     -691.067     -25.297    -430.040
  O     -692.055     -24.633    -430.353
  N     -689.265     -24.314    -431.568
  C     -687.989     -24.646    -431.679
  N     -687.628     -25.644    -430.800
  O     -686.624     -23.340    -435.943
  O     -684.292     -22.751    -435.242
  H     -685.127     -29.181    -430.825
  H     -684.813     -21.933    -435.093
  H     -692.055     -26.456    -428.692
  H     -687.294     -24.190    -432.379
  H     -686.062     -26.153    -429.569
  H     -687.010     -28.003    -431.580
  H     -691.257     -28.310    -427.498
  H     -685.889     -27.007    -433.299
  H     -689.597     -28.762    -427.660
  H     -683.524     -26.118    -431.575
  H     -683.614     -24.217    -433.155
  H     -683.609     -25.686    -434.107
  P     -684.663     -29.106    -434.352
  C     -684.794     -31.635    -433.938
  O     -683.954     -30.541    -434.258
  O     -683.696     -28.301    -435.348
  O     -686.064     -29.124    -434.876
  H     -683.921     -28.498    -436.273
  H     -684.180     -32.471    -433.609
  H     -685.351     -31.933    -434.830
  H     -685.496     -31.370    -433.144
  H     -683.669     -25.380    -438.224
  H     -683.402     -23.756    -437.635
  H     -684.939     -24.186    -438.347

 3  4  5  6  7  8  9  10  11  12  23  26  30  31 0
 6-311+G(2d,p)
 ****
 33  35  36  37  38 0
 6-311+G(2d,p)
 ****
 1  2  13  14  15  16  17  18  19  20  21  22  24  25 0
 3-21G
 ****
 27  28  29  32  34  39  40  41  42  43  44  45  46  47  48  49 0
 3-21G
 ****


