%nproc=1
%NoSave
%Mem=1900MB
#P OB98/GEN NMR

erre ene a

0 1
  C     -389.604     256.991     376.294
  O     -388.766     256.015     376.953
  P     -388.945     254.480     376.504
  C     -388.753     252.736     378.447
  O     -388.099     253.631     377.569
  C     -387.860     252.442     379.659
  O     -386.552     251.993     379.226
  C     -387.617     253.630     380.548
  O     -388.750     253.954     381.344
  C     -386.401     253.165     381.339
  O     -386.815     252.292     382.413
  C     -385.617     252.348     380.276
  N     -384.466     253.065     379.745
  C     -383.378     253.166     380.596
  O     -383.366     252.699     381.735
  N     -382.284     253.823     380.087
  C     -382.185     254.415     378.869
  O     -381.195     254.984     378.461
  C     -383.401     254.325     378.027
  C     -384.466     253.658     378.499
  O     -388.069     254.459     375.166
  O     -390.365     254.083     376.329
  H     -387.276     255.028     375.213
  H     -385.994     251.900     382.787
  H     -381.470     253.887     380.691
  H     -383.378     254.797     377.062
  H     -385.376     253.588     377.886
  H     -385.273     251.403     380.702
  H     -385.838     253.986     381.782
  H     -387.337     254.508     379.937
  H     -388.338     251.628     380.232
  H     -388.985     251.801     377.933
  H     -389.711     253.175     378.746
  P     -389.446     255.378     381.086
  C     -390.002     255.732     383.630
  O     -390.475     255.599     382.287
  O     -390.398     255.044     379.838
  O     -388.484     256.496     380.847
  H     -390.866     254.189     379.933
  H     -390.777     256.213     384.224
  H     -389.099     256.329     383.658
  H     -389.810     254.739     384.035
  H     -389.388     257.965     376.680
  H     -390.633     256.756     376.472
  H     -389.411     256.974     375.242

 3  4  5  6  7  8  9  10  11  12  13  24  28  29  30  31  32 0
 6-311+G(2d,p)
 ****
 33  34 0
 6-311+G(2d,p)
 ****
 1  2  14  15  16  17  18  19  20  21  22  23  25  26  27 0
 3-21G
 ****
 35  36  37  38  39  40  41  42  43  44  45 0
 3-21G
 ****


