%nproc=1
%NoSave
%Mem=1900MB
#P OB98/GEN NMR

erre ene a

0 1
  C      447.385     350.081     -77.971
  O      447.771     351.406     -77.684
  P      447.140     352.210     -76.450
  C      446.360     354.057     -78.070
  O      447.087     353.756     -76.883
  C      445.773     355.472     -77.991
  O      444.583     355.435     -77.144
  C      446.753     356.496     -77.386
  O      446.955     357.668     -78.182
  C      446.176     356.739     -76.002
  O      446.591     357.956     -75.410
  C      444.676     356.572     -76.263
  N      443.911     356.384     -75.028
  C      443.136     357.455     -74.592
  O      443.042     358.528     -75.178
  N      442.487     357.275     -73.402
  C      442.629     356.215     -72.560
  O      442.100     356.167     -71.460
  C      443.497     355.128     -73.055
  C      444.066     355.249     -74.260
  O      447.781     351.962     -75.127
  O      445.589     351.798     -76.504
  H      446.381     358.679     -76.035
  H      445.136     352.029     -77.335
  H      441.920     358.048     -73.071
  H      443.638     354.278     -72.409
  H      444.713     354.467     -74.647
  H      444.259     357.432     -76.792
  H      446.523     355.929     -75.348
  H      447.760     356.066     -77.289
  H      445.471     355.764     -79.001
  H      445.547     353.336     -78.177
  H      447.015     353.949     -78.941
  P      448.348     358.106     -78.836
  C      448.591     360.312     -77.477
  O      448.459     359.701     -78.743
  O      448.629     357.528     -80.186
  O      449.436     357.604     -77.768
  H      450.270     357.400     -78.230
  H      448.155     361.318     -77.524
  H      449.648     360.401     -77.227
  H      448.077     359.741     -76.698
  H      447.921     349.731     -78.828
  H      446.334     350.051     -78.171
  H      447.607     349.455     -77.132

 3  4  5  6  7  8  9  10  11  12  13  23  28  29  30  31  32 0
 6-311+G(2d,p)
 ****
 33  34 0
 6-311+G(2d,p)
 ****
 1  2  14  15  16  17  18  19  20  21  22  24  25  26  27 0
 3-21G
 ****
 35  36  37  38  39  40  41  42  43  44  45 0
 3-21G
 ****


