%nproc=1
%NoSave
%Mem=1900MB
#P OB98/GEN NMR

erre ene a

0 1
  C     -113.859      16.488     198.269
  O     -113.425      15.587     199.290
  P     -113.584      16.100     200.803
  C     -114.547      14.859     202.869
  O     -113.666      14.812     201.756
  C     -115.308      13.540     203.013
  O     -116.253      13.331     201.948
  C     -114.399      12.317     203.011
  O     -113.804      12.150     204.286
  C     -115.378      11.205     202.655
  O     -116.079      10.731     203.823
  C     -116.352      11.907     201.694
  N     -116.772       8.501     197.964
  C     -116.984       8.357     199.322
  N     -117.391       7.141     199.742
  N     -116.815       9.322     200.188
  C     -116.410      10.485     199.626
  C     -116.193      10.756     198.295
  C     -116.380       9.680     197.346
  O     -116.228       9.762     196.133
  N     -115.849      12.070     198.101
  C     -115.734      12.554     199.324
  N     -116.126      11.651     200.282
  O     -115.068      16.700     200.833
  O     -112.570      17.122     201.194
  H     -116.530      11.481     204.249
  H     -115.030      17.671     200.911
  H     -116.908       7.721     197.343
  H     -115.400      13.550     199.568
  H     -117.390      11.617     201.893
  H     -114.869      10.337     202.228
  H     -117.542       6.354     199.130
  H     -113.639      12.413     202.226
  H     -117.558       7.017     200.733
  H     -115.866      13.584     203.958
  H     -115.255      15.682     202.750
  H     -113.963      15.074     203.770
  P     -112.382      12.838     204.545
  C     -110.621      12.599     206.435
  O     -111.626      11.976     205.660
  O     -112.769      14.197     205.302
  O     -111.594      13.118     203.308
  H     -112.249      14.935     204.932
  H     -110.586      12.121     207.418
  H     -110.812      13.668     206.567
  H     -109.653      12.465     205.942
  H     -113.705      16.040     197.309
  H     -113.298      17.397     198.333
  H     -114.899      16.701     198.400

 3  4  5  6  7  8  9  10  11  12  23  26  30  31 0
 6-311+G(2d,p)
 ****
 33  35  36  37  38 0
 6-311+G(2d,p)
 ****
 1  2  13  14  15  16  17  18  19  20  21  22  24  25 0
 3-21G
 ****
 27  28  29  32  34  39  40  41  42  43  44  45  46  47  48  49 0
 3-21G
 ****


