%nproc=1
%NoSave
%Mem=1900MB
#P OB98/GEN NMR

erre ene a

0 1
  C     -106.443       2.017     793.192
  O     -107.518       1.675     794.064
  P     -108.133       0.185     793.899
  C     -107.186      -0.750     796.153
  O     -108.344      -0.410     795.393
  C     -107.546      -0.855     797.643
  O     -107.772       0.452     798.217
  C     -108.819      -1.650     797.922
  O     -108.598      -3.051     797.868
  C     -109.133      -1.198     799.341
  O     -108.366      -1.968     800.286
  C     -108.671       0.268     799.328
  N     -110.418       4.891     800.543
  C     -109.229       4.259     800.898
  N     -108.377       4.976     801.680
  N     -108.913       3.048     800.540
  C     -109.846       2.460     799.738
  C     -111.044       2.967     799.321
  C     -111.404       4.317     799.761
  O     -112.454       4.910     799.506
  N     -111.722       2.090     798.525
  C     -110.924       1.052     798.438
  N     -109.765       1.211     799.169
  O     -106.887      -0.658     793.346
  O     -109.306       0.108     792.983
  H     -108.617      -1.641     801.180
  H     -107.198      -1.416     792.823
  H     -110.606       5.824     800.866
  H     -111.116       0.163     797.828
  H     -108.122       0.531     800.243
  H     -110.183      -1.341     799.611
  H     -108.527       5.940     801.943
  H     -109.640      -1.349     797.244
  H     -107.498       4.556     801.920
  H     -106.680      -1.336     798.157
  H     -106.414       0.008     796.022
  H     -106.777      -1.698     795.772
  P     -109.913      -3.996     797.727
  C     -109.032      -5.256     795.623
  O     -109.393      -5.315     796.988
  O     -110.769      -3.256     796.599
  O     -110.653      -4.203     798.990
  H     -111.729      -3.431     796.731
  H     -108.459      -4.350     795.405
  H     -109.938      -5.274     795.008
  H     -108.429      -6.132     795.357
  H     -106.124       3.018     793.395
  H     -106.771       1.946     792.176
  H     -105.627       1.344     793.351

 3  4  5  6  7  8  9  10  11  12  23  26  30  31  33  0
 6-311+G(2d,p)
 ****
 35  36  37  38 0
 6-311+G(2d,p)
 ****
 1  2  13  14  15  16  17  18  19  20  21  22  24  25  27  28  29 0
 3-21G
 ****
 32  34  39  40  41  42  43  44  45  46  47  48  49 0
 3-21G
 ****


