%nproc=1
%NoSave
%Mem=1900MB
#P OB98/GEN NMR

erre ene a

0 1
  C      570.414    -122.077    -186.049
  O      569.461    -121.400    -186.840
  H      569.979    -123.021    -185.704
  H      570.678    -121.473    -185.179
  H      571.311    -122.296    -186.638
  P      569.901    -119.982    -187.447
  C      570.427    -121.210    -189.672
  O      570.888    -120.304    -188.677
  C      570.922    -120.781    -191.055
  O      570.470    -119.421    -191.318
  C      572.452    -120.795    -191.195
  O      572.788    -121.240    -192.514
  C      572.820    -119.327    -191.063
  O      574.075    -119.035    -191.666
  C      571.620    -118.671    -191.742
  N      572.173    -113.994    -193.515
  C      572.333    -115.216    -194.140
  N      572.703    -115.193    -195.439
  N      572.149    -116.362    -193.543
  C      571.761    -116.238    -192.249
  C      571.578    -115.095    -191.514
  C      571.805    -113.828    -192.185
  O      571.703    -112.718    -191.677
  N      571.212    -115.388    -190.225
  C      571.176    -116.711    -190.184
  N      571.499    -117.270    -191.390
  O      570.888    -119.391    -186.334
  O      568.784    -119.044    -187.766
  H      574.051    -119.365    -192.589
  H      570.853    -118.413    -186.322
  H      572.338    -113.141    -194.017
  H      570.928    -117.305    -189.312
  H      571.681    -118.722    -192.838
  H      572.874    -119.043    -190.005
  H      572.827    -114.344    -195.974
  H      572.951    -121.420    -190.453
  H      572.812    -116.075    -195.924
  H      570.450    -121.419    -191.808
  H      569.332    -121.217    -189.664
  H      570.792    -122.215    -189.442
  P      572.573    -122.799    -192.846
  C      570.913    -122.322    -194.786
  O      571.141    -122.983    -193.551
  O      572.364    -123.445    -191.395
  O      573.724    -123.425    -193.559
  H      573.151    -123.970    -191.156
  H      569.923    -122.538    -195.129
  H      571.623    -122.663    -195.510
  H      571.021    -121.266    -194.651

 6  7  8  9  10  11  12  13  14  15  26  29  33  34 0
 6-311+G(2d,p)
 ****
 36  38  39  40  41 0
 6-311+G(2d,p)
 ****
 1  2  3  4  5  16  17  18  19  20  21  22  23  24  25 0
 3-21G
 ****
 27  28  30  31  32  35  37  42  43  44  45  46  47 0
 3-21G
 ****
 48  49 0
 3-21G
 ****


