%nproc=1
%NoSave
%Mem=1900MB
#P OB98/GEN NMR

erre ene a

0 1
  C      329.230     766.619    -587.835
  O      328.109     766.378    -588.686
  P      328.189     766.227    -590.270
  C      327.429     763.717    -590.156
  O      328.379     764.677    -590.613
  C      327.962     762.274    -590.202
  O      329.147     762.170    -589.366
  C      326.939     761.301    -589.614
  O      325.881     760.811    -590.425
  C      327.766     760.216    -588.946
  O      327.993     759.097    -589.801
  C      329.095     760.926    -588.646
  N      331.865     759.926    -584.457
  C      331.979     759.395    -585.731
  N      332.923     758.447    -585.907
  N      331.232     759.756    -586.739
  C      330.275     760.653    -586.409
  C      330.039     761.235    -585.176
  C      330.921     760.876    -584.081
  O      330.874     761.316    -582.942
  N      328.973     762.084    -585.215
  C      328.524     762.001    -586.455
  N      329.295     761.146    -587.221
  O      329.089     767.190    -590.975
  O      326.675     766.540    -590.745
  H      328.256     758.341    -589.247
  H      326.745     766.966    -591.624
  H      332.489     759.628    -583.733
  H      327.673     762.534    -586.850
  H      329.947     760.335    -588.987
  H      327.258     759.830    -588.053
  H      333.452     758.039    -585.151
  H      326.436     761.829    -588.787
  H      332.870     757.913    -586.774
  H      328.285     762.005    -591.206
  H      326.550     763.816    -590.806
  H      327.105     763.963    -589.147
  P      324.357     761.279    -590.375
  C      324.217     762.551    -592.598
  O      324.234     762.657    -591.191
  O      324.139     761.752    -588.864
  O      323.362     760.234    -590.757
  H      323.182     761.803    -588.658
  H      324.441     763.524    -593.036
  H      323.220     762.233    -592.924
  H      324.965     761.818    -592.950
  H      328.900     766.678    -586.819
  H      329.697     767.541    -588.112
  H      329.933     765.819    -587.936

 3  4  5  6  7  8  9  10  11  12  23  26  30  31 0
 6-311+G(2d,p)
 ****
 33  35  36  37  38 0
 6-311+G(2d,p)
 ****
 1  2  13  14  15  16  17  18  19  20  21  22  24  25 0
 3-21G
 ****
 27  28  29  32  34  39  40  41  42  43  44  45  46  47  48  49 0
 3-21G
 ****


