%nproc=1
%NoSave
%Mem=1900MB
#P OB98/GEN NMR

erre ene a

0 1
  C      -98.431     286.715     231.858
  O      -98.601     286.514     230.446
  P      -97.752     287.489     229.480
  C      -95.582     286.194     228.866
  O      -96.902     286.573     228.473
  C      -95.231     284.773     228.415
  O      -96.040     283.825     229.157
  C      -95.471     284.498     226.923
  O      -94.433     283.619     226.455
  C      -96.770     283.704     226.919
  O      -96.909     282.910     225.741
  C      -96.617     282.908     228.215
  N      -99.374     278.709     228.872
  C      -98.065     278.852     228.440
  N      -97.413     277.705     228.124
  N      -97.460     280.001     228.335
  C      -98.222     281.054     228.720
  C      -99.527     281.049     229.171
  C     -100.207     279.765     229.241
  O     -101.376     279.584     229.563
  N      -99.964     282.316     229.459
  C      -98.935     283.094     229.182
  N      -97.858     282.369     228.718
  O      -96.660     288.114     230.469
  O      -98.577     288.553     228.836
  H      -96.185     282.245     225.754
  H      -96.713     289.091     230.454
  H      -99.811     277.800     228.911
  H      -98.922     284.172     229.269
  H      -95.913     282.071     228.080
  H      -97.620     284.397     226.969
  H      -97.805     276.785     228.240
  H      -95.516     285.392     226.296
  H      -96.440     277.785     227.852
  H      -94.186     284.579     228.676
  H      -95.501     286.260     229.958
  H      -94.869     286.910     228.437
  P      -93.601     284.124     225.170
  C      -92.083     285.877     226.364
  O      -92.178     284.612     225.737
  O      -94.335     285.489     224.765
  O      -93.556     283.139     224.043
  H      -94.223     285.659     223.813
  H      -93.069     286.314     226.564
  H      -91.521     286.552     225.703
  H      -91.550     285.767     227.310
  H      -99.039     286.016     232.394
  H      -98.724     287.712     232.114
  H      -97.404     286.567     232.118

 3  4  5  6  7  8  9  10  11  12  23  26  30  31  33  0
 6-311+G(2d,p)
 ****
 35  36  37  38 0
 6-311+G(2d,p)
 ****
 1  2  13  14  15  16  17  18  19  20  21  22  24  25  27  28  29 0
 3-21G
 ****
 32  34  39  40  41  42  43  44  45  46  47  48  49 0
 3-21G
 ****


