%nproc=1
%NoSave
%Mem=1900MB
#P OB98/GEN NMR

erre ene a

0 1
  C     -159.547    -124.431    -422.548
  O     -159.939    -124.140    -421.221
  P     -159.171    -124.791    -419.978
  C     -157.337    -123.083    -419.444
  O     -157.633    -124.328    -420.063
  C     -155.831    -122.876    -419.308
  O     -155.304    -123.843    -418.357
  C     -155.038    -123.043    -420.613
  O     -153.939    -122.124    -420.549
  C     -154.512    -124.465    -420.509
  O     -153.385    -124.703    -421.343
  C     -154.223    -124.540    -419.013
  N     -151.208    -128.630    -418.469
  C     -150.995    -127.431    -419.050
  N     -151.860    -126.401    -419.178
  C     -153.043    -126.704    -418.624
  C     -153.418    -127.897    -418.024
  C     -152.427    -128.890    -417.941
  N     -152.615    -130.110    -417.321
  N     -154.741    -127.844    -417.630
  C     -155.155    -126.644    -417.986
  N     -154.147    -125.900    -418.530
  O     -159.371    -126.259    -419.805
  O     -159.722    -123.978    -418.713
  H     -153.116    -125.636    -421.236
  H     -160.339    -124.539    -418.205
  H     -150.003    -127.270    -419.462
  H     -156.162    -126.271    -417.874
  H     -153.284    -124.036    -418.749
  H     -155.302    -125.170    -420.798
  H     -155.630    -122.875    -421.515
  H     -155.658    -121.880    -418.879
  H     -157.794    -123.082    -418.450
  H     -151.799    -130.691    -417.200
  H     -153.408    -130.226    -416.694
  H     -157.777    -122.266    -420.028
  P     -153.559    -121.239    -421.833
  C     -154.433    -118.891    -421.326
  O     -154.699    -120.123    -421.970
  O     -153.269    -122.015    -423.076
  O     -152.283    -120.403    -421.346
  H     -151.810    -120.051    -422.121
  H     -154.662    -118.979    -420.259
  H     -155.072    -118.116    -421.763
  H     -153.385    -118.595    -421.445
  H     -160.179    -123.902    -423.231
  H     -159.634    -125.483    -422.723
  H     -158.531    -124.128    -422.695

 3  4  5  6  7  8  9  10  11  12  22  25  29  30  31  32 0
 6-311+G(2d,p)
 ****
 33  36  37 0
 6-311+G(2d,p)
 ****
 1  2  13  14  15  16  17  18  19  20  21  23  24  26 0
 3-21G
 ****
 27  28  34  35  38  39  40  41  42  43  44  45  46  47  48 0
 3-21G
 ****


