%nproc=1
%NoSave
%Mem=1900MB
#P OB98/GEN NMR

erre ene a

0 1
  C      148.853     -18.879    -401.103
  O      149.727     -17.934    -401.686
  H      149.029     -18.904    -400.025
  H      149.044     -19.875    -401.512
  H      147.814     -18.594    -401.286
  P      149.671     -17.784    -403.282
  C      147.735     -16.068    -403.045
  O      148.195     -17.272    -403.643
  C      146.728     -15.390    -403.968
  O      147.406     -14.865    -405.133
  C      145.654     -16.323    -404.509
  O      144.636     -16.579    -403.560
  C      145.159     -15.527    -405.705
  O      144.180     -14.550    -405.318
  C      146.451     -14.848    -406.213
  N      146.972     -15.488    -407.415
  C      147.000     -14.693    -408.556
  O      146.614     -13.524    -408.574
  N      147.454     -15.300    -409.697
  C      147.836     -16.603    -409.811
  O      148.163     -17.107    -410.879
  C      147.799     -17.393    -408.567
  C      147.366     -16.810    -407.446
  O      149.683     -19.303    -403.789
  O      150.777     -16.981    -403.880
  H      150.571     -19.537    -404.115
  H      143.369     -15.048    -405.100
  H      147.471     -14.742    -410.537
  H      148.101     -18.430    -408.621
  H      147.310     -17.377    -406.522
  H      146.258     -13.793    -406.448
  H      144.686     -16.171    -406.446
  H      146.109     -17.255    -404.869
  H      146.272     -14.548    -403.427
  H      148.582     -15.393    -402.884
  H      147.281     -16.303    -402.077
  P      143.949     -18.028    -403.545
  C      145.727     -19.118    -401.947
  O      145.117     -19.083    -403.223
  O      143.648     -18.244    -405.101
  O      142.760     -18.118    -402.652
  H      144.335     -17.864    -405.677
  H      146.476     -19.882    -401.930
  H      144.987     -19.327    -401.203
  H      146.180     -18.171    -401.742

 6  7  8  9  10  11  12  13  14  15  16  27  31  32  33  34  35 0
 6-311+G(2d,p)
 ****
 36  37 0
 6-311+G(2d,p)
 ****
 1  2  3  4  5  17  18  19  20  21  22  23  24  25 0
 3-21G
 ****
 26  28  29  30  38  39  40  41  42  43  44  45 0
 3-21G
 ****


