%nproc=1
%NoSave
%Mem=1900MB
#P OB98/GEN NMR

erre ene a

0 1
  C     -232.820      13.884     180.473
  O     -234.093      14.084     181.059
  H     -232.153      14.678     180.812
  H     -232.893      13.924     179.384
  H     -232.414      12.917     180.787
  P     -235.239      13.038     180.658
  C     -235.534      12.453     183.151
  O     -235.233      11.960     181.853
  C     -234.310      12.345     184.063
  O     -233.235      13.124     183.475
  C     -234.554      12.879     185.475
  O     -233.869      12.053     186.416
  C     -233.925      14.262     185.452
  O     -233.526      14.701     186.749
  C     -232.769      14.054     184.471
  N     -228.967      17.421     184.006
  C     -229.028      16.204     184.588
  N     -230.079      15.365     184.649
  C     -231.135      15.876     183.990
  C     -231.220      17.098     183.352
  C     -230.069      17.898     183.381
  N     -229.999      19.148     182.816
  N     -232.487      17.281     182.828
  C     -233.150      16.178     183.127
  N     -232.377      15.305     183.844
  O     -235.145      12.468     179.283
  O     -236.567      13.875     180.959
  H     -234.299      14.642     187.346
  H     -236.504      14.352     181.809
  H     -228.117      15.862     185.072
  H     -234.181      15.973     182.864
  H     -231.877      13.636     184.955
  H     -234.643      14.989     185.055
  H     -235.617      12.925     185.730
  H     -233.976      11.303     184.083
  H     -236.366      11.884     183.586
  H     -229.125      19.656     182.867
  H     -230.804      19.516     182.331
  H     -235.844      13.495     183.051
  P     -234.674      10.857     187.114
  C     -233.610       8.713     186.150
  O     -234.717       9.608     186.105
  O     -235.980      11.227     187.737
  O     -233.638      10.353     188.230
  H     -234.134      10.100     189.035
  H     -233.756       7.929     185.436
  H     -233.531       8.292     187.131
  H     -232.711       9.245     185.917

 6  7  8  9  10  11  12  13  14  15  25  28  32  33  34  35 0
 6-311+G(2d,p)
 ****
 36  39  40 0
 6-311+G(2d,p)
 ****
 1  2  3  4  5  16  17  18  19  20  21  22  23  24 0
 3-21G
 ****
 26  27  29  30  31  37  38  41  42  43  44  45  46  47 0
 3-21G
 ****
 48 0
 3-21G
 ****


