%nproc=1
%NoSave
%Mem=1900MB
#P OB98/GEN NMR

erre ene a

0 1
  C     -240.091    -199.447     777.737
  O     -239.937    -198.044     777.701
  P     -241.159    -197.076     778.111
  C     -239.988    -195.163     776.826
  O     -241.176    -195.927     776.976
  C     -240.046    -194.324     775.557
  O     -239.852    -195.140     774.381
  C     -241.370    -193.598     775.340
  O     -241.459    -192.456     776.179
  C     -241.308    -193.294     773.861
  O     -240.545    -192.103     773.604
  C     -240.577    -194.531     773.289
  N     -241.494    -195.475     772.657
  C     -241.816    -195.218     771.333
  O     -241.367    -194.207     770.752
  N     -242.697    -196.052     770.671
  C     -243.204    -197.069     771.312
  N     -244.066    -197.861     770.611
  C     -242.920    -197.361     772.729
  C     -242.066    -196.532     773.340
  O     -241.141    -196.594     779.519
  O     -242.447    -197.960     777.748
  H     -241.074    -191.349     773.918
  H     -242.592    -198.678     778.410
  H     -243.383    -198.197     773.230
  H     -241.788    -196.670     774.384
  H     -239.819    -194.235     772.547
  H     -242.303    -193.128     773.415
  H     -242.205    -194.293     775.541
  H     -239.216    -193.590     775.590
  H     -244.263    -197.600     769.653
  H     -239.140    -195.864     776.755
  H     -244.558    -198.638     771.042
  H     -239.842    -194.531     777.715
  P     -242.836    -192.151     776.946
  C     -242.445    -189.613     776.693
  O     -243.340    -190.697     776.479
  O     -242.810    -192.361     778.432
  O     -243.898    -193.145     776.262
  H     -244.441    -193.553     776.948
  H     -242.734    -188.786     776.042
  H     -241.426    -189.900     776.445
  H     -242.491    -189.293     777.731
  H     -239.177    -199.914     777.433
  H     -240.878    -199.737     777.072
  H     -240.334    -199.754     778.733

 3  4  5  6  7  8  9  10  11  12  13  23  27  28  29  30  32 0
 6-311+G(2d,p)
 ****
 34  35 0
 6-311+G(2d,p)
 ****
 1  2  14  15  16  17  18  19  20  21  22  24  25  26 0
 3-21G
 ****
 31  33  36  37  38  39  40  41  42  43  44  45  46 0
 3-21G
 ****


