%nproc=1
%NoSave
%Mem=1900MB
#P OB98/GEN NMR

erre ene a

0 1
  C     -125.413     270.847     195.374
  O     -125.973     271.461     196.517
  H     -124.829     271.587     194.823
  H     -126.212     270.474     194.725
  H     -124.752     270.025     195.658
  P     -126.586     270.487     197.635
  C     -128.912     270.610     196.482
  O     -127.867     269.779     196.971
  C     -130.055     269.759     195.933
  O     -131.164     270.600     195.532
  C     -129.686     268.927     194.711
  O     -129.057     267.704     195.084
  C     -131.062     268.665     194.121
  O     -131.734     267.635     194.881
  C     -131.763     270.018     194.345
  N     -133.984     271.901     190.188
  C     -134.399     270.896     191.040
  N     -135.580     270.297     190.735
  N     -133.732     270.498     192.090
  C     -132.561     271.171     192.260
  C     -132.038     272.177     191.476
  C     -132.796     272.614     190.327
  O     -132.476     273.504     189.548
  N     -130.828     272.611     191.968
  C     -130.613     271.851     193.017
  N     -131.634     270.954     193.238
  O     -127.223     271.515     198.690
  O     -125.605     269.577     198.292
  H     -132.583     267.461     194.426
  H     -126.628     271.590     199.463
  H     -134.539     272.159     189.389
  H     -129.740     271.911     193.656
  H     -132.835     269.903     194.538
  H     -131.025     268.321     193.083
  H     -136.135     270.539     189.929
  H     -129.081     269.496     193.998
  H     -135.904     269.560     191.349
  H     -130.415     269.118     196.750
  H     -128.515     271.246     195.686
  H     -129.273     271.242     197.301
  P     -127.980     267.072     194.074
  C     -129.364     264.957     193.463
  O     -128.799     266.186     193.011
  O     -127.247     265.977     194.989
  O     -127.003     268.031     193.490
  H     -126.321     266.250     195.161
  H     -129.875     264.480     192.653
  H     -130.056     265.153     194.256
  H     -128.585     264.316     193.820

 6  7  8  9  10  11  12  13  14  15  26  29  33  34 0
 6-311+G(2d,p)
 ****
 36  38  39  40  41 0
 6-311+G(2d,p)
 ****
 1  2  3  4  5  16  17  18  19  20  21  22  23  24  25 0
 3-21G
 ****
 27  28  30  31  32  35  37  42  43  44  45  46  47 0
 3-21G
 ****
 48  49 0
 3-21G
 ****


