%nproc=1
%NoSave
%Mem=1900MB
#P OB98/GEN NMR

erre ene a

0 1
  C     -120.940     415.869      37.871
  O     -121.867     416.454      38.758
  H     -119.933     415.995      38.281
  H     -120.984     416.368      36.900
  H     -121.140     414.801      37.752
  P     -123.428     416.250      38.435
  C     -123.252     418.454      37.073
  O     -123.742     417.122      37.124
  C     -124.218     419.349      36.293
  O     -124.149     419.000      34.888
  C     -125.678     419.211      36.742
  O     -126.295     420.501      36.696
  C     -126.297     418.321      35.679
  O     -127.709     418.507      35.556
  C     -125.488     418.713      34.435
  N     -125.504     417.651      33.431
  C     -126.455     417.766      32.412
  O     -127.235     418.721      32.395
  N     -126.541     416.772      31.471
  C     -125.804     415.713      31.588
  N     -125.957     414.750      30.638
  C     -124.834     415.518      32.683
  C     -124.731     416.519      33.555
  O     -124.155     417.068      39.601
  O     -123.885     414.834      38.363
  H     -128.018     418.000      34.774
  H     -125.011     416.662      39.836
  H     -124.258     414.603      32.750
  H     -124.050     416.464      34.396
  H     -125.889     419.629      33.987
  H     -126.118     417.268      35.931
  H     -125.787     418.790      37.745
  H     -123.880     420.388      36.384
  H     -126.644     414.912      29.911
  H     -122.282     418.457      36.568
  H     -125.469     413.865      30.654
  H     -123.121     418.832      38.092
  P     -126.420     421.289      38.091
  C     -128.823     420.364      38.433
  O     -127.525     420.551      38.984
  O     -127.123     422.664      37.673
  O     -125.106     421.522      38.763
  H     -126.481     423.398      37.728
  H     -129.443     419.860      39.145
  H     -128.751     419.775      37.543
  H     -129.251     421.316      38.197

 6  7  8  9  10  11  12  13  14  15  16  26  30  31  32  33  35 0
 6-311+G(2d,p)
 ****
 37  38 0
 6-311+G(2d,p)
 ****
 1  2  3  4  5  17  18  19  20  21  22  23  24  25 0
 3-21G
 ****
 27  28  29  34  36  39  40  41  42  43  44  45  46 0
 3-21G
 ****


