%nproc=1
%NoSave
%Mem=1900MB
#P OB98/GEN NMR

erre ene a

0 1
  C      167.544    -438.589    -930.952
  O      167.560    -439.146    -929.644
  P      168.727    -440.201    -929.311
  C      166.874    -441.841    -928.493
  O      168.033    -441.640    -929.313
  C      165.778    -442.563    -929.290
  O      165.425    -441.784    -930.450
  C      166.188    -443.925    -929.820
  O      166.151    -444.900    -928.786
  C      165.151    -444.142    -930.917
  O      163.940    -444.723    -930.376
  C      164.891    -442.704    -931.428
  N      165.450    -442.468    -932.749
  C      164.569    -442.650    -933.840
  O      163.401    -443.002    -933.612
  N      165.033    -442.450    -935.102
  C      166.278    -442.116    -935.280
  N      166.694    -441.946    -936.566
  C      167.247    -441.958    -934.187
  C      166.776    -442.142    -932.954
  O      169.023    -439.925    -927.756
  O      169.957    -440.066    -930.151
  H      164.134    -445.674    -930.249
  H      169.940    -440.176    -927.519
  H      168.264    -441.669    -934.388
  H      167.403    -442.040    -932.079
  H      163.799    -442.514    -931.467
  H      165.516    -444.825    -931.689
  H      167.197    -443.887    -930.270
  H      164.891    -442.645    -928.650
  H      166.015    -442.072    -937.299
  H      166.493    -440.878    -928.160
  H      167.634    -441.662    -936.820
  H      167.166    -442.432    -927.609
  P      167.493    -445.729    -928.499
  C      166.487    -447.586    -929.968
  O      167.607    -446.755    -929.736
  O      167.043    -446.704    -927.297
  O      168.718    -444.948    -928.168
  H      167.815    -447.195    -926.974
  H      166.623    -448.115    -930.899
  H      165.561    -446.988    -930.023
  H      166.395    -448.325    -929.146
  H      166.723    -437.908    -931.040
  H      167.436    -439.373    -931.672
  H      168.461    -438.067    -931.129

 3  4  5  6  7  8  9  10  11  12  13  21  23  27  28  29  30  32 0
 6-311+G(2d,p)
 ****
 34  35 0
 6-311+G(2d,p)
 ****
 1  2  14  15  16  17  18  19  20  22  24  25  26 0
 3-21G
 ****
 31  33  36  37  38  39  40  41  42  43  44  45  46 0
 3-21G
 ****


