%nproc=1
%NoSave
%Mem=1900MB
#P OB98/GEN NMR

erre ene a

0 1
  C     -483.037    -253.393    -297.635
  O     -482.068    -252.478    -298.111
  P     -482.572    -251.007    -298.508
  C     -481.726    -250.206    -296.180
  O     -481.741    -249.992    -297.592
  C     -480.533    -249.493    -295.544
  O     -479.306    -250.159    -295.918
  C     -480.371    -248.052    -295.981
  O     -481.295    -247.221    -295.306
  C     -478.916    -247.785    -295.612
  O     -478.799    -247.371    -294.243
  C     -478.256    -249.165    -295.829
  N     -477.392    -249.203    -297.001
  C     -476.112    -248.672    -296.826
  O     -475.773    -248.198    -295.736
  N     -475.250    -248.655    -297.896
  C     -475.644    -249.118    -299.043
  N     -474.756    -249.084    -300.073
  C     -477.001    -249.664    -299.274
  C     -477.817    -249.672    -298.223
  O     -484.046    -250.945    -297.883
  O     -482.566    -250.717    -299.972
  H     -479.436    -247.924    -293.742
  H     -484.609    -250.319    -298.373
  H     -477.277    -250.042    -300.249
  H     -478.828    -250.053    -298.304
  H     -477.653    -249.441    -294.955
  H     -478.475    -246.994    -296.222
  H     -480.497    -247.955    -297.067
  H     -480.637    -249.558    -294.454
  H     -473.840    -248.697    -299.885
  H     -481.643    -251.282    -295.979
  H     -474.955    -249.441    -300.998
  H     -482.666    -249.843    -295.758
  P     -481.877    -245.955    -296.103
  C     -483.223    -247.452    -297.694
  O     -483.282    -246.448    -296.694
  O     -480.957    -245.927    -297.409
  O     -481.886    -244.646    -295.382
  H     -481.147    -245.128    -297.939
  H     -484.240    -247.811    -297.894
  H     -482.616    -248.296    -297.359
  H     -482.810    -247.030    -298.615
  H     -482.566    -254.327    -297.410
  H     -483.785    -253.543    -298.385
  H     -483.493    -253.001    -296.750

 3  4  5  6  7  8  9  10  11  12  13  21  23  27  28  29  30  32 0
 6-311+G(2d,p)
 ****
 34  35 0
 6-311+G(2d,p)
 ****
 1  2  14  15  16  17  18  19  20  22  24  25  26 0
 3-21G
 ****
 31  33  36  37  38  39  40  41  42  43  44  45  46 0
 3-21G
 ****


