%nproc=1
%NoSave
%Mem=1900MB
#P OB98/GEN NMR

erre ene a

0 1
  C       39.526     305.130    -898.440
  O       38.498     304.251    -898.030
  H       39.116     305.795    -899.210
  H       40.354     304.559    -898.890
  H       39.898     305.736    -897.620
  P       38.780     303.263    -896.800
  C       37.905     301.313    -898.260
  O       38.956     301.793    -897.420
  C       38.131     299.836    -898.600
  O       39.350     299.690    -899.390
  C       38.362     298.953    -897.350
  O       37.111     298.682    -896.700
  C       39.014     297.735    -897.990
  O       38.043     296.875    -898.590
  C       39.931     298.400    -899.070
  N       41.326     298.536    -898.640
  C       42.108     297.421    -898.770
  O       41.677     296.309    -899.180
  N       43.411     297.549    -898.370
  C       43.967     298.656    -897.790
  O       45.144     298.695    -897.380
  C       43.067     299.806    -897.650
  C       41.817     299.711    -898.090
  O       37.816     303.363    -895.650
  O       40.268     303.657    -896.350
  H       38.531     296.158    -899.010
  H       40.240     304.169    -895.510
  H       44.018     296.727    -898.430
  H       43.488     300.713    -897.200
  H       41.154     300.562    -898.000
  H       39.875     297.819    -900.000
  H       39.580     297.142    -897.250
  H       39.073     299.439    -896.670
  H       37.281     299.477    -899.180
  H       37.888     301.903    -899.200
  H       36.932     301.439    -897.730
  P       37.085     297.724    -895.400
  C       35.244     296.211    -896.380
  O       36.588     296.273    -895.830
  O       36.417     298.308    -894.190
  O       38.676     297.500    -895.080
  H       38.880     297.847    -894.180
  H       35.009     295.199    -896.635
  H       35.189     296.822    -897.257
  H       34.544     296.567    -895.653

 6  7  8  9  10  11  12  13  14  15  16  26  31  32  33  34  35 0
 6-311+G(2d,p)
 ****
 36  37 0
 6-311+G(2d,p)
 ****
 1  2  3  4  5  17  18  19  20  21  22  23  24  25 0
 3-21G
 ****
 27  28  29  30  38  39  40  41  42  43  44  45 0
 3-21G
 ****


