%nproc=1
%NoSave
%Mem=1900MB
#P OB98/GEN NMR

erre ene a

0 1
  C       90.081    -368.791     -49.989
  O       90.709    -369.799     -50.787
  P       90.697    -369.544     -52.371
  C       93.156    -368.759     -52.621
  O       91.781    -368.402     -52.711
  C       94.044    -367.523     -52.574
  O       93.903    -366.729     -53.793
  C       93.766    -366.583     -51.403
  O       95.007    -366.005     -50.990
  C       92.889    -365.512     -52.022
  O       92.869    -364.331     -51.237
  C       93.581    -365.368     -53.374
  N       92.720    -360.908     -55.582
  C       93.526    -361.232     -54.519
  N       94.254    -360.211     -53.981
  N       93.614    -362.429     -54.023
  C       92.865    -363.354     -54.669
  C       92.034    -363.167     -55.758
  C       91.924    -361.814     -56.278
  O       91.209    -361.486     -57.221
  N       91.459    -364.350     -56.145
  C       91.894    -365.222     -55.268
  N       92.798    -364.687     -54.381
  O       89.288    -368.805     -52.605
  O       90.807    -370.795     -53.187
  H       93.787    -364.030     -51.104
  H       88.632    -369.446     -52.949
  H       92.657    -359.965     -55.931
  H       91.618    -366.259     -55.246
  H       94.530    -364.810     -53.299
  H       91.863    -365.848     -52.160
  H       94.261    -359.285     -54.354
  H       93.257    -367.064     -50.543
  H       94.894    -360.431     -53.232
  H       95.094    -367.852     -52.527
  H       93.426    -369.377     -53.487
  H       93.307    -369.412     -51.749
  P       95.329    -365.953     -49.429
  C       97.395    -367.524     -49.420
  O       96.039    -367.340     -49.035
  O       93.868    -366.078     -48.767
  O       96.030    -364.715     -48.987
  H       93.821    -365.491     -47.973
  H       97.851    -368.226     -48.744
  H       97.955    -366.590     -49.414
  H       97.408    -367.959     -50.431
  H       90.147    -369.062     -48.956
  H       89.052    -368.703     -50.270
  H       90.574    -367.854     -50.145

 3  4  5  6  7  8  9  10  11  12  23  26  30  31 0
 6-311+G(2d,p)
 ****
 33  35  36  37  38 0
 6-311+G(2d,p)
 ****
 1  2  13  14  15  16  17  18  19  20  21  22  24  25 0
 3-21G
 ****
 27  28  29  32  34  39  40  41  42  43  44  45  46  47  48  49 0
 3-21G
 ****


