%nproc=1
%NoSave
%Mem=1900MB
#P OB98/GEN NMR

erre ene a

0 1
  C       16.372    -138.129     -51.378
  O       16.414    -137.624     -52.697
  P       15.653    -136.272     -53.104
  C       13.824    -137.763     -54.130
  O       14.106    -136.675     -53.263
  C       12.933    -137.332     -55.297
  O       11.575    -137.117     -54.818
  C       13.382    -136.044     -56.004
  O       13.038    -136.202     -57.385
  C       12.507    -134.990     -55.352
  O       12.416    -133.798     -56.124
  C       11.196    -135.772     -55.180
  N       10.317    -135.158     -54.188
  C        9.053    -134.759     -54.629
  O        8.748    -134.862     -55.820
  N        8.180    -134.205     -53.724
  C        8.579    -133.973     -52.512
  N        7.670    -133.428     -51.659
  C        9.947    -134.261     -52.041
  C       10.751    -134.858     -52.917
  O       16.233    -135.541     -54.268
  O       15.651    -135.417     -51.751
  H       12.041    -134.025     -57.001
  H       16.537    -135.008     -51.599
  H       10.252    -133.996     -51.039
  H       11.774    -135.111     -52.662
  H       10.653    -135.830     -56.132
  H       12.920    -134.723     -54.370
  H       14.448    -135.833     -55.893
  H       12.892    -138.159     -56.015
  H        6.739    -133.260     -52.020
  H       13.298    -138.531     -53.554
  H        7.852    -133.283     -50.675
  H       14.759    -138.203     -54.499
  P       14.130    -136.031     -58.543
  C       12.968    -133.833     -59.163
  O       14.205    -134.466     -58.888
  O       13.951    -136.929     -59.723
  O       15.530    -136.308     -57.811
  H       16.220    -136.474     -58.481
  H       13.101    -132.748     -59.103
  H       12.201    -134.138     -58.445
  H       12.642    -134.094     -60.172
  H       16.942    -139.033     -51.324
  H       15.357    -138.330     -51.105
  H       16.785    -137.406     -50.706

 3  4  5  6  7  8  9  10  11  12  13  23  27  28  29  30  32 0
 6-311+G(2d,p)
 ****
 34  35 0
 6-311+G(2d,p)
 ****
 1  2  14  15  16  17  18  19  20  21  22  24  25  26 0
 3-21G
 ****
 31  33  36  37  38  39  40  41  42  43  44  45  46 0
 3-21G
 ****


