%nproc=1
%NoSave
%Mem=1900MB
#P OB98/GEN NMR

erre ene a

0 1
  C      205.121     324.141      71.527
  O      204.541     324.985      70.542
  P      205.161     324.928      69.061
  C      207.505     325.737      69.823
  O      206.345     326.012      69.047
  C      208.450     326.930      69.813
  O      208.823     327.246      68.459
  C      207.858     328.213      70.380
  O      207.901     328.234      71.799
  C      208.795     329.255      69.789
  O      209.991     329.339      70.586
  C      209.113     328.665      68.405
  N      207.577     332.986      66.258
  C      208.391     332.784      67.355
  N      208.888     333.891      67.946
  N      208.689     331.602      67.828
  C      208.153     330.586      67.112
  C      207.331     330.660      66.008
  C      206.966     331.975      65.526
  O      206.197     332.216      64.600
  N      207.003     329.413      65.548
  C      207.653     328.587      66.343
  N      208.342     329.252      67.327
  O      204.023     325.613      68.167
  O      205.507     323.563      68.570
  H      209.712     329.520      71.504
  H      204.089     325.294      67.246
  H      207.393     333.915      65.923
  H      207.653     327.510      66.243
  H      210.179     328.766      68.166
  H      208.358     330.259      69.764
  H      208.802     334.814      67.550
  H      206.842     328.377      70.006
  H      209.517     333.761      68.728
  H      209.360     326.652      70.359
  H      208.022     324.869      69.402
  H      207.197     325.499      70.846
  P      206.665     328.943      72.544
  C      207.882     331.238      72.545
  O      207.301     330.198      73.308
  O      206.305     327.917      73.715
  O      205.496     329.227      71.661
  H      205.367     328.011      73.971
  H      207.329     331.410      71.617
  H      208.918     330.979      72.312
  H      207.870     332.157      73.135
  H      204.614     324.280      72.459
  H      206.156     324.387      71.643
  H      205.030     323.120      71.220

 3  4  5  6  7  8  9  10  11  12  23  26  30  31  33  0
 6-311+G(2d,p)
 ****
 35  36  37  38 0
 6-311+G(2d,p)
 ****
 1  2  13  14  15  16  17  18  19  20  21  22  24  25  27  28  29 0
 3-21G
 ****
 32  34  39  40  41  42  43  44  45  46  47  48  49 0
 3-21G
 ****


