%nproc=1
%NoSave
%Mem=1900MB
#P OB98/GEN NMR

erre ene a

0 1
  C      358.160    -123.339     -39.336
  O      357.762    -124.696     -39.265
  P      358.615    -125.665     -38.308
  C      356.368    -126.958     -38.071
  O      357.785    -127.028     -38.166
  C      355.821    -128.231     -37.435
  O      356.335    -128.379     -36.095
  C      354.304    -128.267     -37.290
  O      353.677    -128.531     -38.535
  C      354.148    -129.373     -36.252
  O      354.284    -130.659     -36.875
  C      355.346    -129.108     -35.323
  N      354.297    -129.301     -30.315
  C      354.582    -130.269     -31.215
  N      354.828    -130.141     -32.534
  C      354.765    -128.853     -32.906
  C      354.464    -127.762     -32.108
  C      354.225    -128.020     -30.749
  N      353.929    -127.031     -29.838
  N      354.470    -126.597     -32.847
  C      354.780    -126.977     -34.069
  N      354.983    -128.328     -34.153
  O      358.461    -124.985     -36.871
  O      360.051    -125.829     -38.700
  H      353.593    -130.722     -37.565
  H      359.274    -125.101     -36.340
  H      354.620    -131.280     -30.820
  H      354.875    -126.316     -34.918
  H      355.816    -130.033     -34.970
  H      353.176    -129.352     -35.745
  H      353.935    -127.318     -36.886
  H      356.167    -129.085     -38.031
  H      355.939    -126.851     -39.073
  H      353.627    -127.319     -28.920
  H      353.738    -126.103     -30.191
  H      356.094    -126.076     -37.483
  P      352.094    -128.289     -38.626
  C      352.517    -127.117     -40.874
  O      351.818    -128.153     -40.205
  O      351.966    -126.779     -38.118
  O      351.262    -129.292     -37.905
  H      352.603    -126.190     -38.561
  H      352.281    -127.170     -41.939
  H      353.596    -127.241     -40.740
  H      352.202    -126.143     -40.489
  H      357.511    -122.812     -40.004
  H      359.166    -123.281     -39.696
  H      358.103    -122.899     -38.362

 3  4  5  6  7  8  9  10  11  12  22  25  29  30  31  32 0
 6-311+G(2d,p)
 ****
 33  36  37 0
 6-311+G(2d,p)
 ****
 1  2  13  14  15  16  17  18  19  20  21  23  24  26 0
 3-21G
 ****
 27  28  34  35  38  39  40  41  42  43  44  45  46  47  48 0
 3-21G
 ****


