%nproc=1
%NoSave
%Mem=1900MB
#P OB98/GEN NMR

erre ene a

0 1
  C     -772.153     -10.184    -761.853
  O     -772.599      -9.831    -763.162
  P     -773.600      -8.579    -763.297
  C     -776.102      -8.274    -763.912
  O     -775.079      -9.173    -763.537
  C     -777.462      -8.968    -763.986
  O     -777.444      -9.940    -765.073
  C     -777.860      -9.732    -762.713
  O     -779.279      -9.663    -762.579
  C     -777.468     -11.172    -763.028
  O     -778.146     -12.112    -762.208
  C     -777.813     -11.230    -764.509
  N     -777.195     -16.295    -764.835
  C     -777.989     -15.545    -764.055
  N     -778.099     -14.191    -764.034
  C     -777.284     -13.631    -764.933
  C     -776.389     -14.268    -765.774
  C     -776.350     -15.674    -765.713
  N     -775.550     -16.450    -766.515
  N     -775.686     -13.350    -766.532
  C     -776.154     -12.176    -766.157
  N     -777.125     -12.292    -765.197
  O     -773.202      -7.969    -764.724
  O     -773.499      -7.545    -762.215
  H     -778.001     -13.008    -762.583
  H     -772.772      -7.099    -764.615
  H     -778.623     -16.090    -763.360
  H     -775.807     -11.211    -766.532
  H     -778.897     -11.367    -764.676
  H     -776.384     -11.301    -762.871
  H     -777.368      -9.351    -761.794
  H     -778.231      -8.225    -764.235
  H     -775.865      -7.872    -764.904
  H     -775.703     -17.451    -766.517
  H     -775.075     -16.012    -767.293
  H     -776.138      -7.442    -763.212
  P     -779.904     -10.013    -761.143
  C     -780.825     -12.197    -760.064
  O     -780.023     -11.614    -761.072
  O     -781.433      -9.527    -761.267
  O     -779.205      -9.354    -759.977
  H     -781.775      -9.298    -760.384
  H     -781.259     -13.124    -760.463
  H     -781.645     -11.503    -759.765
  H     -780.215     -12.449    -759.197
  H     -771.498     -11.028    -761.915
  H     -772.997     -10.431    -761.243
  H     -771.630      -9.357    -761.419

 3  4  5  6  7  8  9  10  11  12  22  25  29  30  31  32 0
 6-311+G(2d,p)
 ****
 33  36  37 0
 6-311+G(2d,p)
 ****
 1  2  13  14  15  16  17  18  19  20  21  23  24  26 0
 3-21G
 ****
 27  28  34  35  38  39  40  41  42  43  44  45  46  47  48 0
 3-21G
 ****


