%nproc=1
%NoSave
%Mem=1900MB
#P OB98/GEN NMR

erre ene a

0 1
  C      814.094     373.907    -517.608
  O      815.193     374.793    -517.576
  H      813.364     374.232    -516.865
  H      814.410     372.884    -517.364
  H      813.622     373.924    -518.594
  P      816.465     374.464    -518.501
  C      817.065     376.987    -518.518
  O      817.491     375.670    -518.204
  C      817.842     378.012    -517.692
  O      817.441     377.966    -516.301
  C      819.353     377.794    -517.668
  O      819.998     378.163    -518.883
  C      819.729     378.705    -516.505
  O      819.694     380.075    -516.943
  C      818.575     378.410    -515.515
  N      818.929     377.395    -514.514
  C      820.077     377.642    -513.754
  O      820.744     378.662    -513.921
  N      820.473     376.699    -512.828
  C      819.784     375.599    -512.693
  N      820.254     374.680    -511.801
  C      818.565     375.309    -513.469
  C      818.192     376.238    -514.355
  O      816.186     374.199    -519.943
  O      817.192     373.237    -517.760
  H      819.874     380.631    -516.166
  H      817.979     372.990    -518.301
  H      818.034     374.380    -513.323
  H      817.324     376.089    -514.967
  H      818.268     379.326    -514.993
  H      820.733     378.510    -516.109
  H      819.593     376.757    -517.394
  H      817.582     379.002    -518.072
  H      821.114     374.895    -511.324
  H      815.984     377.054    -518.321
  H      819.943     373.710    -511.841
  H      817.244     377.200    -519.577
  P      821.444     377.528    -519.187
  C      820.925     377.394    -521.736
  O      821.781     377.882    -520.711
  O      821.147     375.963    -519.210
  O      822.529     377.907    -518.219
  H      821.315     375.559    -518.339
  H      821.289     377.718    -522.689
  H      819.936     377.772    -521.585
  H      820.906     376.325    -521.706

 6  7  8  9  10  11  12  13  14  15  16  26  30  31  32  33  35 0
 6-311+G(2d,p)
 ****
 37  38 0
 6-311+G(2d,p)
 ****
 1  2  3  4  5  17  18  19  20  21  22  23  24  25 0
 3-21G
 ****
 27  28  29  34  36  39  40  41  42  43  44  45  46 0
 3-21G
 ****


