%nproc=1
%NoSave
%Mem=1900MB
#P OB98/GEN NMR

erre ene a

0 1
  C      275.196      61.751    -216.714
  O      274.205      62.568    -216.120
  H      275.635      62.293    -217.557
  H      274.765      60.817    -217.081
  H      275.986      61.534    -215.989
  P      273.236      61.903    -215.025
  C      274.955      62.056    -213.101
  O      274.214      61.192    -213.964
  C      274.389      62.025    -211.679
  O      274.210      60.664    -211.243
  C      275.303      62.660    -210.643
  O      275.428      64.063    -210.763
  C      274.793      62.059    -209.342
  O      273.699      62.775    -208.777
  C      274.315      60.659    -209.805
  N      275.192      59.597    -209.326
  C      274.932      59.126    -208.043
  O      274.037      59.574    -207.324
  N      275.764      58.140    -207.589
  C      276.839      57.632    -208.259
  O      277.575      56.778    -207.778
  C      277.080      58.188    -209.601
  C      276.257      59.132    -210.066
  O      272.167      61.001    -215.562
  O      272.669      63.157    -214.210
  H      273.416      62.286    -207.980
  H      271.869      62.909    -213.687
  H      275.585      57.780    -206.666
  H      277.927      57.809    -210.158
  H      276.419      59.560    -211.054
  H      273.306      60.456    -209.422
  H      275.575      62.021    -208.584
  H      276.311      62.258    -210.791
  H      273.405      62.513    -211.691
  H      274.875      63.072    -213.500
  H      276.009      61.757    -213.100
  P      276.825      64.832    -210.665
  C      277.223      64.495    -213.207
  O      277.746      64.360    -211.895
  O      277.439      64.939    -209.307
  O      276.399      66.320    -211.117
  H      276.949      66.951    -210.612
  H      277.943      64.143    -213.916
  H      277.006      65.525    -213.400
  H      276.325      63.919    -213.294

 6  7  8  9  10  11  12  13  14  15  16  26  31  32  33  34  35 0
 6-311+G(2d,p)
 ****
 36  37 0
 6-311+G(2d,p)
 ****
 1  2  3  4  5  17  18  19  20  21  22  23  24  25 0
 3-21G
 ****
 27  28  29  30  38  39  40  41  42  43  44  45 0
 3-21G
 ****


