%nproc=1
%NoSave
%Mem=1900MB
#P OB98/GEN NMR

erre ene a

0 1
  C     -758.869     668.817      74.580
  O     -759.361     667.527      74.293
  P     -758.432     666.256      74.133
  C     -758.830     665.514      76.618
  O     -757.892     665.814      75.573
  C     -758.564     664.122      77.225
  O     -757.216     664.107      77.756
  C     -759.535     663.829      78.392
  O     -760.028     662.495      78.383
  C     -758.736     664.277      79.611
  O     -759.201     663.709      80.829
  C     -757.302     663.941      79.195
  N     -755.441     665.752      83.561
  C     -756.371     664.761      83.373
  N     -757.047     664.340      84.461
  N     -756.666     664.268      82.196
  C     -756.029     664.882      81.166
  C     -755.065     665.865      81.247
  C     -754.728     666.391      82.537
  O     -753.973     667.321      82.756
  N     -754.676     666.276      79.992
  C     -755.420     665.569      79.158
  N     -756.271     664.732      79.826
  O     -757.454     666.268      72.999
  O     -759.526     665.093      73.825
  H     -759.087     662.744      80.740
  H     -759.109     664.473      73.204
  H     -755.312     666.149      84.498
  H     -755.385     665.632      78.091
  H     -757.067     662.884      79.416
  H     -758.864     665.367      79.685
  H     -756.932     664.818      85.339
  H     -760.433     664.431      78.296
  H     -757.893     663.819      84.333
  H     -758.615     663.363      76.420
  H     -759.814     665.536      76.146
  H     -758.804     666.277      77.383
  P     -761.285     661.885      79.159
  C     -763.165     662.310      77.454
  O     -762.595     662.697      78.690
  O     -761.105     662.356      80.672
  O     -761.421     660.404      79.104
  H     -761.384     661.649      81.284
  H     -763.861     663.097      77.115
  H     -763.701     661.378      77.560
  H     -762.378     662.184      76.692
  H     -759.686     669.505      74.639
  H     -758.200     669.124      73.804
  H     -758.348     668.800      75.514

 3  4  5  6  7  8  9  10  11  12  23  26  30  31 0
 6-311+G(2d,p)
 ****
 33  35  36  37  38 0
 6-311+G(2d,p)
 ****
 1  2  13  14  15  16  17  18  19  20  21  22  24  25 0
 3-21G
 ****
 27  28  29  32  34  39  40  41  42  43  44  45  46  47  48  49 0
 3-21G
 ****


