%nproc=1
%NoSave
%Mem=1900MB
#P OB98/GEN NMR

erre ene a

0 1
  C       -1.363      23.289      55.370
  O       -1.545      23.073      56.757
  P       -2.709      23.893      57.493
  C       -4.345      21.940      58.048
  O       -4.076      23.092      57.259
  C       -5.310      21.018      57.301
  O       -4.720      20.570      56.062
  C       -5.661      19.752      58.068
  O       -6.635      20.004      59.068
  C       -6.157      18.842      56.953
  O       -7.536      19.106      56.648
  C       -5.249      19.257      55.777
  N       -4.189      18.288      55.520
  C       -4.372      17.466      54.411
  O       -5.372      17.523      53.694
  N       -3.386      16.548      54.177
  C       -2.284      16.337      54.956
  O       -1.462      15.459      54.726
  C       -2.158      17.215      56.131
  C       -3.104      18.130      56.359
  O       -2.878      25.208      56.594
  O       -2.424      24.229      58.918
  H       -7.640      20.079      56.653
  H       -3.092      25.972      57.163
  H       -3.486      15.960      53.365
  H       -1.298      17.075      56.771
  H       -3.037      18.776      57.226
  H       -5.844      19.365      54.863
  H       -6.086      17.783      57.222
  H       -4.754      19.317      58.508
  H       -6.218      21.587      57.061
  H       -4.789      22.248      58.998
  H       -3.405      21.424      58.258
  P       -6.188      19.775      60.594
  C       -5.800      22.341      60.893
  O       -5.267      21.037      60.952
  O       -5.173      18.548      60.427
  O       -7.340      19.512      61.505
  H       -4.699      18.578      59.578
  H       -6.848      22.361      61.205
  H       -5.719      22.720      59.871
  H       -5.222      22.988      61.557
  H       -0.558      22.679      55.017
  H       -1.133      24.319      55.197
  H       -2.261      23.031      54.848

 3  4  5  6  7  8  9  10  11  12  13  23  28  29  30  31  32 0
 6-311+G(2d,p)
 ****
 33  34 0
 6-311+G(2d,p)
 ****
 1  2  14  15  16  17  18  19  20  21  22  24  25  26 0
 3-21G
 ****
 27  35  36  37  38  39  40  41  42  43  44  45 0
 3-21G
 ****


