%nproc=1
%NoSave
%Mem=1900MB
#P OB98/GEN NMR

erre ene a

0 1
  C       95.001    -161.643      97.882
  O       95.771    -162.560      97.138
  H       94.108    -162.154      98.249
  H       94.691    -160.813      97.241
  H       95.560    -161.258      98.738
  P       97.277    -162.175      96.757
  C       98.244    -163.355      98.838
  O       98.230    -163.281      97.420
  C       99.255    -164.405      99.318
  O       99.295    -164.392     100.767
  C       98.839    -165.818      98.896
  O       99.960    -166.684      98.741
  C       98.009    -166.290     100.078
  O       97.932    -167.712     100.177
  C       98.741    -165.629     101.244
  N       97.996    -166.319     106.239
  C       98.915    -166.920     105.403
  N       99.749    -167.821     105.975
  N       98.996    -166.677     104.121
  C       98.056    -165.810     103.674
  C       97.080    -165.168     104.401
  C       97.023    -165.418     105.825
  O       96.214    -164.930     106.607
  N       96.302    -164.370     103.598
  C       96.804    -164.531     102.391
  N       97.886    -165.377     102.389
  O       97.573    -160.881      97.656
  O       97.528    -161.903      95.305
  H       98.811    -168.034     100.448
  H       98.301    -160.361      97.272
  H       97.996    -166.518     107.224
  H       96.435    -164.050     101.495
  H       99.571    -166.259     101.586
  H       96.989    -165.920      99.950
  H       99.588    -168.175     106.905
  H       98.254    -165.829      97.979
  H      100.201    -168.484     105.341
  H      100.261    -164.144      98.970
  H       97.234    -163.623      99.154
  H       98.470    -162.379      99.268
  P      100.509    -166.971      97.264
  C      101.973    -164.806      96.851
  O      101.888    -166.201      97.039
  O       99.479    -166.195      96.320
  O      100.606    -168.422      96.913
  H       98.989    -166.826      95.761
  H      102.997    -164.525      96.722
  H      101.572    -164.306      97.707
  H      101.415    -164.529      95.981

 6  7  8  9  10  11  12  13  14  15  26  29  33  34 0
 6-311+G(2d,p)
 ****
 36  38  39  40  41 0
 6-311+G(2d,p)
 ****
 1  2  3  4  5  16  17  18  19  20  21  22  23  24  25 0
 3-21G
 ****
 27  28  30  31  32  35  37  42  43  44  45  46  47 0
 3-21G
 ****
 48  49 0
 3-21G
 ****


