%nproc=1
%NoSave
%Mem=1900MB
#P OB98/GEN NMR

erre ene a

0 1
  C     -593.271     169.793    -434.461
  O     -594.705     169.798    -434.418
  P     -595.479     171.165    -434.746
  C     -595.877     171.765    -432.268
  O     -596.479     171.473    -433.526
  C     -596.765     172.694    -431.441
  O     -597.009     173.946    -432.119
  C     -598.145     172.111    -431.158
  O     -598.072     171.099    -430.169
  C     -598.920     173.362    -430.756
  O     -598.690     173.692    -429.380
  C     -598.287     174.438    -431.678
  N     -599.141     174.807    -432.795
  C     -599.253     176.174    -433.060
  O     -598.685     176.999    -432.342
  N     -600.024     176.577    -434.126
  C     -600.635     175.689    -434.854
  N     -601.383     176.152    -435.900
  C     -600.555     174.235    -434.602
  C     -599.810     173.875    -433.562
  O     -596.092     171.248    -436.109
  O     -594.341     172.276    -434.557
  H     -597.718     173.765    -429.282
  H     -594.532     173.026    -435.153
  H     -601.074     173.536    -435.241
  H     -599.691     172.822    -433.302
  H     -598.082     175.354    -431.098
  H     -600.001     173.226    -430.883
  H     -598.559     171.697    -432.087
  H     -596.247     172.912    -430.490
  H     -601.430     177.144    -436.045
  H     -594.898     172.231    -432.435
  H     -601.857     175.539    -436.554
  H     -595.684     170.827    -431.743
  P     -597.495     169.669    -430.612
  C     -599.933     168.818    -430.932
  O     -598.652     168.586    -430.372
  O     -596.435     169.333    -429.454
  O     -596.853     169.645    -431.964
  H     -595.691     168.833    -429.840
  H     -600.485     167.874    -430.961
  H     -599.848     169.204    -431.955
  H     -600.476     169.539    -430.314
  H     -592.910     168.815    -434.220
  H     -592.890     170.498    -433.752
  H     -592.943     170.063    -435.443

 3  4  5  6  7  8  9  10  11  12  13  23  27  28  29  30  32 0
 6-311+G(2d,p)
 ****
 34  35 0
 6-311+G(2d,p)
 ****
 1  2  14  15  16  17  18  19  20  21  22  24  25  26 0
 3-21G
 ****
 31  33  36  37  38  39  40  41  42  43  44  45  46 0
 3-21G
 ****


