%nproc=1
%NoSave
%Mem=1900MB
#P OB98/GEN NMR

erre ene a

0 1
  C      565.772      91.964     315.527
  O      565.428      92.587     314.304
  P      564.132      93.515     314.178
  C      561.584      93.109     314.167
  O      562.864      92.578     314.515
  C      560.841      92.123     313.246
  O      561.532      92.074     311.962
  C      560.794      90.692     313.822
  O      559.477      90.129     313.873
  C      561.782      89.947     312.937
  O      561.601      88.545     312.922
  C      561.628      90.682     311.604
  N      562.733      90.417     310.678
  C      562.578      89.346     309.799
  O      561.582      88.638     309.729
  N      563.649      89.072     309.000
  C      564.881      89.665     309.073
  O      565.828      89.303     308.398
  C      564.997      90.760     310.056
  C      563.930      91.091     310.792
  O      564.003      94.276     312.905
  O      564.211      94.434     315.491
  H      562.308      88.150     312.378
  H      564.213      93.948     316.327
  H      563.559      88.304     308.350
  H      565.961      91.237     310.145
  H      563.988      91.894     311.522
  H      560.695      90.410     311.107
  H      562.789      90.128     313.335
  H      561.139      90.672     314.858
  H      559.835      92.521     313.084
  H      561.718      94.054     313.641
  H      561.011      93.309     315.076
  P      559.090      88.795     314.675
  C      559.024      86.313     313.887
  O      559.721      87.541     313.913
  O      557.641      88.664     315.013
  O      559.975      88.887     316.009
  H      559.519      88.432     316.734
  H      559.745      85.502     313.805
  H      558.364      86.295     313.015
  H      558.432      86.174     314.803
  H      566.667      91.392     315.397
  H      564.977      91.317     315.834
  H      565.932      92.712     316.275

 3  4  5  6  7  8  9  10  11  12  13  23  28  29  30  31  32 0
 6-311+G(2d,p)
 ****
 33  34 0
 6-311+G(2d,p)
 ****
 1  2  14  15  16  17  18  19  20  21  22  24  25  26  27 0
 3-21G
 ****
 35  36  37  38  39  40  41  42  43  44  45 0
 3-21G
 ****


