%nproc=1
%NoSave
%Mem=1900MB
#P OB98/GEN NMR

erre ene a

0 1
  C     -245.468     102.437    -359.946
  O     -244.523     102.658    -360.995
  P     -243.169     103.456    -360.686
  C     -243.081     104.183    -363.171
  O     -242.352     103.668    -362.052
  C     -242.205     104.127    -364.428
  O     -240.962     104.853    -364.247
  C     -241.777     102.710    -364.792
  O     -242.788     101.838    -365.258
  C     -240.595     102.959    -365.707
  O     -241.002     103.223    -367.044
  C     -239.961     104.215    -365.065
  N     -238.756     103.912    -364.289
  C     -237.548     104.009    -364.978
  O     -237.470     104.287    -366.172
  N     -236.425     103.736    -364.240
  C     -236.396     103.360    -362.930
  O     -235.358     103.108    -362.324
  C     -237.700     103.254    -362.266
  C     -238.807     103.529    -362.965
  O     -242.362     102.938    -359.540
  O     -243.699     104.940    -360.365
  H     -241.577     102.487    -367.331
  H     -243.179     105.286    -359.616
  H     -235.537     103.808    -364.719
  H     -237.717     102.948    -361.223
  H     -239.783     103.456    -362.495
  H     -239.679     104.941    -365.843
  H     -239.926     102.086    -365.747
  H     -241.382     102.238    -363.877
  H     -242.749     104.601    -365.252
  H     -243.383     105.211    -362.967
  H     -243.997     103.602    -363.294
  P     -243.039     100.378    -364.644
  C     -244.081      99.487    -366.850
  O     -244.239      99.685    -365.460
  O     -243.059     100.250    -363.157
  O     -241.756      99.575    -365.211
  H     -241.505      98.901    -364.544
  H     -244.994      99.020    -367.239
  H     -243.237      98.825    -367.043
  H     -243.927     100.444    -367.357
  H     -246.305     101.892    -360.329
  H     -245.801     103.378    -359.561
  H     -245.005     101.875    -359.162

 3  4  5  6  7  8  9  10  11  12  13  23  28  29  30  31  32 0
 6-311+G(2d,p)
 ****
 33  34 0
 6-311+G(2d,p)
 ****
 1  2  14  15  16  17  18  19  20  21  22  24  25  26  27 0
 3-21G
 ****
 35  36  37  38  39  40  41  42  43  44  45 0
 3-21G
 ****


