%nproc=1
%NoSave
%Mem=1900MB
#P OB98/GEN NMR

erre ene a

0 1
  C     -442.748     271.655    -333.678
  O     -441.520     270.957    -333.619
  H     -443.448     271.195    -332.977
  H     -443.165     271.584    -334.687
  H     -442.613     272.706    -333.403
  P     -440.257     271.659    -334.314
  C     -439.768     272.527    -336.715
  O     -440.559     271.677    -335.896
  C     -440.210     272.422    -338.177
  O     -439.997     271.084    -338.676
  C     -441.693     272.725    -338.403
  O     -441.921     274.131    -338.509
  C     -441.918     272.039    -339.735
  O     -441.375     272.845    -340.804
  C     -441.086     270.753    -339.577
  N     -444.507     267.135    -340.564
  C     -444.053     268.165    -341.363
  N     -444.595     268.254    -342.601
  N     -443.151     269.041    -340.988
  C     -442.722     268.846    -339.715
  C     -443.098     267.862    -338.826
  C     -444.082     266.894    -339.268
  O     -444.502     265.947    -338.598
  N     -442.434     267.985    -337.625
  C     -441.677     269.059    -337.787
  N     -441.815     269.615    -339.038
  O     -439.104     270.555    -334.161
  O     -439.840     272.961    -333.721
  H     -441.759     273.740    -340.710
  H     -438.511     270.814    -333.432
  H     -445.205     266.485    -340.897
  H     -441.013     269.456    -337.038
  H     -440.643     270.422    -340.522
  H     -442.976     271.881    -339.961
  H     -445.313     267.629    -342.949
  H     -442.330     272.263    -337.635
  H     -444.287     269.003    -343.200
  H     -439.581     273.102    -338.777
  H     -438.716     272.233    -336.635
  H     -439.881     273.566    -336.362
  P     -443.262     274.718    -337.849
  C     -445.783     274.110    -337.901
  O     -444.464     273.722    -338.239
  O     -443.549     276.019    -338.743
  O     -443.170     275.073    -336.397
  H     -443.407     276.831    -338.213
  H     -446.470     273.354    -338.220
  H     -446.018     275.034    -338.386
  H     -445.857     274.235    -336.841

 6  7  8  9  10  11  12  13  14  15  26  29  33  34 0
 6-311+G(2d,p)
 ****
 36  38  39  40  41 0
 6-311+G(2d,p)
 ****
 1  2  3  4  5  16  17  18  19  20  21  22  23  24  25 0
 3-21G
 ****
 27  28  30  31  32  35  37  42  43  44  45  46  47 0
 3-21G
 ****
 48  49 0
 3-21G
 ****


