%nproc=1
%NoSave
%Mem=1900MB
#P OB98/GEN NMR

erre ene a

0 1
  C      638.192     411.600     -76.983
  O      639.441     411.621     -77.692
  P      640.711     412.476     -77.215
  C      640.627     410.735     -75.307
  O      641.115     411.991     -75.727
  C      640.736     410.586     -73.779
  O      642.126     410.451     -73.385
  C      640.245     411.780     -72.979
  O      638.817     411.877     -72.962
  C      640.874     411.503     -71.617
  O      640.064     410.606     -70.844
  C      642.205     410.816     -71.995
  N      643.365     411.648     -71.737
  C      644.390     411.076     -70.963
  O      644.246     409.967     -70.474
  N      645.538     411.800     -70.766
  C      645.610     413.030     -71.198
  N      646.782     413.695     -70.975
  C      644.503     413.704     -71.883
  C      643.420     412.973     -72.129
  O      640.526     413.953     -77.337
  O      641.932     411.967     -78.133
  H      642.596     412.677     -78.199
  H      640.011     409.760     -71.336
  H      644.598     414.749     -72.194
  H      642.568     413.390     -72.648
  H      642.300     409.873     -71.454
  H      641.003     412.415     -71.020
  H      640.672     412.706     -73.398
  H      640.199     409.678     -73.482
  H      647.532     413.190     -70.506
  H      641.223     409.932     -75.777
  H      646.951     414.633     -71.294
  H      639.577     410.609     -75.626
  P      638.195     413.257     -72.448
  C      636.985     413.848     -74.668
  O      637.980     414.203     -73.726
  O      639.409     413.950     -71.649
  O      636.987     413.092     -71.566
  H      639.055     414.397     -70.860
  H      636.622     414.770     -75.152
  H      636.122     413.356     -74.186
  H      637.420     413.194     -75.414
  H      637.503     410.961     -77.494
  H      637.792     412.591     -76.936
  H      638.351     411.233     -75.991

 3  4  5  6  7  8  9  10  11  12  13  24  27  28  29  30  32 0
 6-311+G(2d,p)
 ****
 34  35 0
 6-311+G(2d,p)
 ****
 1  2  14  15  16  17  18  19  20  21  22  23  25  26 0
 3-21G
 ****
 31  33  36  37  38  39  40  41  42  43  44  45  46 0
 3-21G
 ****


