%nproc=1
%NoSave
%Mem=1900MB
#P OB98/GEN NMR

erre ene a

0 1
  C       40.110     300.999    -551.611
  O       40.858     301.574    -552.667
  H       40.708     300.967    -550.696
  H       39.224     301.623    -551.428
  H       39.779     299.991    -551.882
  P       42.183     300.788    -553.109
  C       43.686     302.894    -552.858
  O       43.174     301.892    -553.731
  C       44.041     304.150    -553.657
  O       44.904     303.804    -554.758
  C       42.851     304.869    -554.278
  O       42.166     305.677    -553.335
  C       43.549     305.707    -555.336
  O       44.129     306.873    -554.719
  C       44.648     304.762    -555.827
  N       43.934     305.110    -560.887
  C       44.367     306.006    -559.963
  N       44.552     305.834    -558.644
  C       44.259     304.572    -558.289
  C       43.824     303.541    -559.107
  C       43.653     303.853    -560.468
  N       43.150     302.942    -561.385
  N       43.614     302.392    -558.375
  C       43.890     302.730    -557.131
  N       44.291     304.032    -557.029
  O       41.695     299.949    -554.388
  O       42.776     299.905    -552.064
  H       44.093     307.591    -555.381
  H       41.470     299.043    -554.111
  H       44.593     307.005    -560.355
  H       43.814     302.067    -556.278
  H       45.594     305.289    -556.024
  H       42.867     306.062    -556.121
  H       42.164     304.169    -554.778
  H       44.602     304.822    -552.992
  H       44.586     302.515    -552.359
  H       42.651     303.376    -562.157
  H       42.716     302.126    -560.970
  H       42.926     303.127    -552.103
  P       40.572     305.792    -553.450
  C       40.697     308.372    -553.298
  O       40.156     307.173    -552.753
  O       40.055     304.675    -552.444
  O       40.019     305.571    -554.837
  H       39.462     304.046    -552.904
  H       40.338     309.211    -552.739
  H       40.394     308.468    -554.320
  H       41.765     308.338    -553.244

 6  7  8  9  10  11  12  13  14  15  25  28  32  33  34  35 0
 6-311+G(2d,p)
 ****
 36  39  40 0
 6-311+G(2d,p)
 ****
 1  2  3  4  5  16  17  18  19  20  21  22  23  24 0
 3-21G
 ****
 26  27  29  30  31  37  38  41  42  43  44  45  46  47  48 0
 3-21G
 ****


