%nproc=1
%NoSave
%Mem=1900MB
#P OB98/GEN NMR

erre ene a

0 1
  C       69.438     147.933    -112.614
  O       68.771     147.643    -111.403
  H       68.702     148.277    -113.346
  H       69.921     147.033    -113.003
  H       70.182     148.721    -112.470
  P       69.644     147.311    -110.100
  C       71.414     148.565    -108.704
  O       70.702     148.503    -109.934
  C       72.869     148.940    -108.963
  O       73.557     147.848    -109.610
  C       73.047     150.144    -109.881
  O       72.774     151.349    -109.193
  C       74.496     149.963    -110.307
  O       75.392     150.440    -109.289
  C       74.587     148.423    -110.445
  N       74.459     147.962    -111.826
  C       75.576     148.126    -112.640
  O       76.613     148.664    -112.255
  N       75.453     147.665    -113.924
  C       74.321     147.146    -114.482
  O       74.247     146.796    -115.658
  C       73.162     147.028    -113.587
  C       73.282     147.434    -112.322
  O       70.230     145.939    -110.044
  O       68.625     147.566    -108.891
  H       75.217     149.905    -108.491
  H       68.270     146.714    -108.575
  H       76.248     147.786    -114.533
  H       72.245     146.626    -113.998
  H       72.436     147.360    -111.647
  H       75.546     148.064    -110.053
  H       74.739     150.507    -111.219
  H       72.407     150.044    -110.765
  H       73.355     149.116    -107.994
  H       71.370     147.582    -108.222
  H       70.933     149.303    -108.054
  P       72.454     152.695    -109.996
  C       70.563     153.476    -111.537
  O       71.309     152.357    -111.071
  O       73.644     153.400    -110.555
  O       71.691     153.612    -108.929
  H       72.284     154.325    -108.621
  H       69.831     153.147    -112.244
  H       71.224     154.175    -112.006
  H       70.074     153.948    -110.711

 6  7  8  9  10  11  12  13  14  15  16  26  31  32  33  34  35 0
 6-311+G(2d,p)
 ****
 36  37 0
 6-311+G(2d,p)
 ****
 1  2  3  4  5  17  18  19  20  21  22  23  24  25 0
 3-21G
 ****
 27  28  29  30  38  39  40  41  42  43  44  45 0
 3-21G
 ****


