%nproc=1
%NoSave
%Mem=1900MB
#P OB98/GEN NMR

erre ene a

0 1
  C     -238.694    -547.217     535.263
  O     -239.955    -547.545     535.841
  P     -241.055    -546.486     536.307
  C     -240.321    -546.479     538.837
  O     -240.524    -545.755     537.626
  C     -239.768    -545.563     539.946
  O     -239.698    -546.321     541.193
  C     -238.354    -545.048     539.639
  O     -238.156    -543.673     539.965
  C     -237.471    -546.064     540.354
  O     -236.152    -545.587     540.604
  C     -238.310    -546.406     541.592
  N     -236.928    -549.113     545.694
  C     -236.985    -547.742     545.530
  N     -236.608    -546.988     546.586
  N     -237.360    -547.161     544.424
  C     -237.633    -548.024     543.412
  C     -237.605    -549.404     543.458
  C     -237.238    -550.044     544.705
  O     -237.194    -551.244     544.918
  N     -237.955    -549.948     542.239
  C     -238.176    -548.902     541.470
  N     -238.002    -547.711     542.143
  O     -242.469    -546.978     536.329
  O     -240.967    -545.323     535.199
  H     -236.231    -544.729     541.053
  H     -241.867    -544.952     535.105
  H     -236.660    -549.511     546.575
  H     -238.480    -548.943     540.436
  H     -238.152    -545.688     542.397
  H     -237.380    -546.941     539.701
  H     -236.187    -547.368     547.423
  H     -238.146    -545.090     538.565
  H     -236.432    -546.003     546.383
  H     -240.470    -544.729     540.085
  H     -239.580    -547.252     538.597
  H     -241.242    -546.976     539.151
  P     -238.986    -542.403     539.464
  C     -236.995    -541.258     538.322
  O     -238.269    -541.824     538.135
  O     -238.700    -541.266     540.545
  O     -240.458    -542.634     539.328
  H     -239.537    -541.001     540.978
  H     -236.743    -540.677     537.425
  H     -236.248    -542.054     538.439
  H     -236.976    -540.599     539.192
  H     -238.156    -548.116     535.046
  H     -238.130    -546.622     535.951
  H     -238.849    -546.667     534.358

 3  4  5  6  7  8  9  10  11  12  23  26  30  31 0
 6-311+G(2d,p)
 ****
 33  35  36  37  38 0
 6-311+G(2d,p)
 ****
 1  2  13  14  15  16  17  18  19  20  21  22  24  25 0
 3-21G
 ****
 27  28  29  32  34  39  40  41  42  43  44  45  46  47  48  49 0
 3-21G
 ****


