%nproc=1
%NoSave
%Mem=1900MB
#P OB98/GEN NMR

erre ene a

0 1
  C      -73.804     149.355    -140.647
  O      -72.553     150.006    -140.744
  H      -73.697     148.485    -139.993
  H      -74.122     149.013    -141.635
  H      -74.557     150.024    -140.223
  P      -72.536     151.425    -141.494
  C      -73.441     150.276    -143.641
  O      -73.602     151.320    -142.690
  C      -74.254     150.576    -144.897
  O      -75.646     150.771    -144.560
  C      -73.817     151.833    -145.642
  O      -72.705     151.582    -146.494
  C      -75.068     152.129    -146.449
  O      -75.142     151.234    -147.580
  C      -76.177     151.800    -145.441
  N      -79.383     155.721    -145.166
  C      -79.223     154.770    -146.159
  N      -80.029     154.886    -147.237
  N      -78.354     153.795    -146.102
  C      -77.607     153.811    -144.971
  C      -77.670     154.697    -143.919
  C      -78.644     155.763    -143.989
  O      -78.842     156.617    -143.129
  N      -76.763     154.384    -142.942
  C      -76.135     153.323    -143.413
  N      -76.606     152.937    -144.643
  O      -71.126     151.424    -142.258
  O      -72.675     152.618    -140.610
  H      -74.888     150.351    -147.258
  H      -70.768     152.332    -142.255
  H      -80.059     156.456    -145.266
  H      -75.339     152.797    -142.902
  H      -77.072     151.390    -145.922
  H      -75.086     153.145    -146.845
  H      -80.685     155.640    -147.365
  H      -73.622     152.662    -144.954
  H      -79.955     154.183    -147.962
  H      -74.196     149.696    -145.554
  H      -73.785     149.335    -143.203
  H      -72.379     150.186    -143.892
  P      -71.786     152.835    -146.903
  C      -72.106     152.233    -149.410
  O      -72.227     153.224    -148.396
  O      -70.341     152.171    -147.107
  O      -71.757     153.948    -145.912
  H      -69.645     152.846    -146.997
  H      -72.436     152.637    -150.344
  H      -72.708     151.386    -149.155
  H      -71.083     151.931    -149.493

 6  7  8  9  10  11  12  13  14  15  26  29  33  34 0
 6-311+G(2d,p)
 ****
 36  38  39  40  41 0
 6-311+G(2d,p)
 ****
 1  2  3  4  5  16  17  18  19  20  21  22  23  24  25 0
 3-21G
 ****
 27  28  30  31  32  35  37  42  43  44  45  46  47 0
 3-21G
 ****
 48  49 0
 3-21G
 ****


