%nproc=1
%NoSave
%Mem=1900MB
#P OB98/GEN NMR

erre ene a

0 1
  C      -61.859    -523.327    -162.940
  O      -62.988    -523.146    -162.114
  H      -61.629    -522.382    -163.437
  H      -62.065    -524.081    -163.711
  H      -60.998    -523.637    -162.340
  P      -63.523    -524.433    -161.324
  C      -63.514    -522.785    -159.351
  O      -63.224    -524.106    -159.782
  C      -64.120    -522.797    -157.934
  O      -65.338    -523.581    -157.972
  C      -63.191    -523.404    -156.889
  O      -63.324    -522.686    -155.665
  C      -63.738    -524.809    -156.705
  O      -63.429    -525.350    -155.417
  C      -65.228    -524.604    -156.956
  N      -66.281    -529.429    -155.656
  C      -65.736    -528.397    -154.956
  N      -65.519    -527.134    -155.393
  C      -65.940    -526.979    -156.644
  C      -66.492    -527.921    -157.483
  C      -66.665    -529.214    -156.942
  N      -67.182    -530.268    -157.641
  N      -66.778    -527.376    -158.738
  C      -66.400    -526.115    -158.639
  N      -65.879    -525.833    -157.409
  O      -63.000    -525.750    -161.812
  O      -65.110    -524.246    -161.418
  H      -62.471    -525.513    -155.366
  H      -65.370    -523.327    -161.246
  H      -65.453    -528.609    -153.938
  H      -66.474    -525.375    -159.427
  H      -65.771    -524.258    -156.064
  H      -63.306    -525.486    -157.467
  H      -62.143    -523.410    -157.199
  H      -64.409    -521.761    -157.672
  H      -64.216    -522.295    -160.047
  H      -67.271    -531.160    -157.167
  H      -67.492    -530.123    -158.597
  H      -62.574    -522.222    -159.357
  P      -62.054    -521.855    -155.130
  C      -63.181    -519.535    -154.987
  O      -62.183    -520.329    -155.626
  O      -60.720    -522.491    -155.349
  O      -62.364    -521.731    -153.554
  H      -61.538    -521.814    -153.048
  H      -63.169    -518.548    -155.399
  H      -62.979    -519.485    -153.937
  H      -64.143    -519.976    -155.145

 6  7  8  9  10  11  12  13  14  15  25  28  32  33  34  35 0
 6-311+G(2d,p)
 ****
 36  39  40 0
 6-311+G(2d,p)
 ****
 1  2  3  4  5  16  17  18  19  20  21  22  23  24 0
 3-21G
 ****
 26  27  29  30  31  37  38  41  42  43  44  45  46  47 0
 3-21G
 ****
 48 0
 3-21G
 ****


