%nproc=1
%NoSave
%Mem=1900MB
#P OB98/GEN NMR

erre ene a

0 1
  C      204.295    -399.723    -155.714
  O      204.311    -400.111    -154.356
  H      205.277    -399.927    -156.147
  H      204.094    -398.651    -155.797
  H      203.543    -400.287    -156.271
  P      202.956    -400.009    -153.504
  C      203.268    -397.744    -152.328
  O      202.611    -398.447    -153.373
  C      202.704    -396.333    -152.190
  O      203.186    -395.529    -153.296
  C      201.171    -396.277    -152.201
  O      200.747    -395.272    -151.282
  C      200.845    -395.843    -153.619
  O      199.590    -395.168    -153.702
  C      202.040    -394.953    -153.957
  N      202.121    -391.828    -157.924
  C      201.941    -391.561    -156.583
  N      201.723    -390.271    -156.244
  N      201.967    -392.478    -155.653
  C      202.206    -393.722    -156.131
  C      202.399    -394.118    -157.433
  C      202.355    -393.092    -158.458
  O      202.495    -393.271    -159.660
  N      202.588    -395.474    -157.520
  C      202.503    -395.897    -156.271
  N      202.263    -394.876    -155.394
  O      202.955    -400.753    -152.208
  O      201.831    -400.551    -154.501
  H      199.516    -394.815    -154.616
  H      201.602    -401.477    -154.293
  H      202.083    -391.085    -158.601
  H      202.602    -396.929    -155.952
  H      201.910    -393.924    -153.598
  H      200.809    -396.721    -154.276
  H      201.708    -389.509    -156.905
  H      200.711    -397.237    -151.948
  H      201.611    -390.049    -155.262
  H      203.104    -395.885    -151.274
  H      204.337    -397.692    -152.569
  H      203.146    -398.291    -151.388
  P      200.455    -395.691    -149.762
  C      198.453    -394.278    -148.966
  O      198.882    -395.531    -149.489
  O      201.348    -395.069    -148.740
  O      200.642    -397.286    -149.794
  H      200.955    -397.585    -148.917
  H      197.392    -394.294    -148.828
  H      198.712    -393.498    -149.651
  H      198.933    -394.101    -148.026

 6  7  8  9  10  11  12  13  14  15  26  29  33  34 0
 6-311+G(2d,p)
 ****
 36  38  39  40  41 0
 6-311+G(2d,p)
 ****
 1  2  3  4  5  16  17  18  19  20  21  22  23  24  25 0
 3-21G
 ****
 27  28  30  31  32  35  37  42  43  44  45  46  47 0
 3-21G
 ****
 48  49 0
 3-21G
 ****


