%nproc=1
%NoSave
%Mem=1900MB
#P OB98/GEN NMR

erre ene a

0 1
  C     -102.523     860.508    -132.531
  O     -101.391     859.679    -132.690
  H     -103.346     859.909    -132.129
  H     -102.825     860.921    -133.495
  H     -102.302     861.319    -131.830
  P     -100.065     860.367    -133.274
  C      -98.392     858.943    -131.893
  O      -98.905     859.256    -133.181
  C      -99.229     857.847    -131.238
  O      -99.246     856.682    -132.108
  C      -98.698     857.398    -129.866
  O      -99.812     857.125    -129.008
  C      -97.989     856.092    -130.186
  O      -97.878     855.249    -129.044
  C      -98.888     855.546    -131.291
  N      -98.335     850.570    -131.802
  C      -99.126     851.300    -130.936
  N      -99.882     850.601    -130.062
  N      -99.165     852.607    -130.919
  C      -98.376     853.179    -131.862
  C      -97.546     852.570    -132.771
  C      -97.491     851.122    -132.765
  O      -96.798     850.420    -133.488
  N      -96.880     853.500    -133.534
  C      -97.316     854.664    -133.089
  N      -98.225     854.522    -132.077
  O      -99.658     861.419    -132.137
  O     -100.210     861.011    -134.612
  H      -97.212     854.558    -129.245
  H      -99.202     862.190    -132.525
  H      -98.336     849.568    -131.763
  H      -97.002     855.634    -133.460
  H      -99.809     855.101    -130.899
  H      -96.980     856.293    -130.564
  H      -99.927     849.593    -130.037
  H      -98.035     858.127    -129.394
  H     -100.479     851.117    -129.425
  H     -100.266     858.197    -131.162
  H      -98.418     859.846    -131.271
  H      -97.355     858.610    -131.992
  P     -100.080     858.142    -127.799
  C     -102.571     857.469    -127.524
  O     -101.295     857.578    -126.913
  O     -100.719     859.414    -128.537
  O      -98.852     858.517    -127.038
  H     -100.074     860.143    -128.543
  H     -103.274     857.082    -126.816
  H     -102.509     856.808    -128.363
  H     -102.892     858.435    -127.853

 6  7  8  9  10  11  12  13  14  15  26  29  33  34 0
 6-311+G(2d,p)
 ****
 36  38  39  40  41 0
 6-311+G(2d,p)
 ****
 1  2  3  4  5  16  17  18  19  20  21  22  23  24  25 0
 3-21G
 ****
 27  28  30  31  32  35  37  42  43  44  45  46  47 0
 3-21G
 ****
 48  49 0
 3-21G
 ****


