%nproc=1
%NoSave
%Mem=1900MB
#P OB98/GEN NMR

erre ene a

0 1
  C     -134.267     371.177    -165.604
  O     -134.401     372.578    -165.617
  H     -133.442     370.910    -164.938
  H     -134.032     370.803    -166.604
  H     -135.181     370.705    -165.233
  P     -135.516     373.255    -166.554
  C     -135.605     374.020    -169.006
  O     -134.770     373.554    -167.951
  C     -134.801     374.819    -170.031
  O     -134.127     375.924    -169.367
  C     -133.724     373.992    -170.757
  O     -133.793     374.238    -172.160
  C     -132.421     374.540    -170.204
  O     -131.318     374.338    -171.084
  C     -132.804     375.995    -169.939
  N     -131.855     376.669    -169.061
  C     -131.066     377.659    -169.650
  O     -131.198     377.926    -170.848
  N     -130.105     378.281    -168.889
  C     -129.920     377.912    -167.663
  N     -128.935     378.548    -166.969
  C     -130.717     376.846    -167.008
  C     -131.659     376.275    -167.758
  O     -136.213     374.426    -165.947
  O     -136.510     372.060    -166.934
  H     -131.577     374.637    -171.983
  H     -137.378     372.441    -167.196
  H     -130.517     376.575    -165.982
  H     -132.289     375.483    -167.363
  H     -132.874     376.566    -170.880
  H     -132.190     374.037    -169.256
  H     -133.819     372.921    -170.580
  H     -135.500     375.273    -170.744
  H     -128.415     379.266    -167.462
  H     -136.399     374.643    -168.573
  H     -128.686     378.333    -166.019
  H     -136.052     373.153    -169.500
  P     -134.823     373.328    -172.995
  C     -134.872     370.901    -173.923
  O     -134.118     371.909    -173.269
  O     -134.855     374.029    -174.437
  O     -136.185     373.259    -172.385
  H     -135.721     374.458    -174.575
  H     -134.272     370.022    -174.033
  H     -135.173     371.251    -174.888
  H     -135.740     370.670    -173.341

 6  7  8  9  10  11  12  13  14  15  16  26  30  31  32  33  35 0
 6-311+G(2d,p)
 ****
 37  38 0
 6-311+G(2d,p)
 ****
 1  2  3  4  5  17  18  19  20  21  22  23  24  25 0
 3-21G
 ****
 27  28  29  34  36  39  40  41  42  43  44  45  46 0
 3-21G
 ****


