%nproc=1
%NoSave
%Mem=1900MB
#P OB98/GEN NMR

erre ene a

0 1
  C     -295.522    -396.718     -77.530
  O     -296.428    -395.899     -76.791
  P     -297.342    -396.660     -75.711
  C     -299.476    -397.085     -77.116
  O     -298.322    -397.647     -76.514
  C     -300.720    -397.930     -76.813
  O     -300.965    -397.989     -75.374
  C     -302.004    -397.393     -77.466
  O     -302.797    -398.535     -77.822
  C     -302.647    -396.624     -76.324
  O     -304.017    -396.332     -76.542
  C     -302.335    -397.572     -75.168
  N     -305.097    -397.641     -70.880
  C     -305.182    -398.360     -72.023
  N     -304.407    -398.279     -73.124
  C     -303.458    -397.339     -72.966
  C     -303.249    -396.526     -71.864
  C     -304.120    -396.707     -70.776
  N     -304.060    -395.965     -69.620
  N     -302.184    -395.667     -72.084
  C     -301.820    -395.911     -73.330
  N     -302.500    -396.969     -73.866
  O     -298.313    -395.508     -75.165
  O     -296.557    -397.307     -74.616
  H     -304.513    -397.160     -76.698
  H     -297.992    -395.165     -74.313
  H     -305.983    -399.098     -72.053
  H     -301.071    -395.363     -73.885
  H     -302.962    -398.472     -75.190
  H     -302.127    -395.669     -76.192
  H     -301.824    -396.789     -78.362
  H     -300.533    -398.953     -77.153
  H     -299.344    -397.020     -78.198
  H     -304.737    -396.165     -68.896
  H     -303.360    -395.250     -69.510
  H     -299.603    -396.058     -76.761
  P     -303.149    -398.779     -79.369
  C     -305.705    -398.928     -79.218
  O     -304.601    -398.114     -79.563
  O     -303.520    -400.341     -79.344
  O     -302.087    -398.422     -80.352
  H     -304.161    -400.535     -78.631
  H     -306.617    -398.330     -79.319
  H     -305.617    -399.267     -78.181
  H     -305.768    -399.781     -79.895
  H     -294.969    -396.110     -78.215
  H     -296.072    -397.457     -78.074
  H     -294.846    -397.201     -76.855

 3  4  5  6  7  8  9  10  11  12  22  25  29  30  31  32 0
 6-311+G(2d,p)
 ****
 33  36  37 0
 6-311+G(2d,p)
 ****
 1  2  13  14  15  16  17  18  19  20  21  23  24  26 0
 3-21G
 ****
 27  28  34  35  38  39  40  41  42  43  44  45  46  47  48 0
 3-21G
 ****


