%nproc=1
%NoSave
%Mem=1900MB
#P OB98/GEN NMR

erre ene a

0 1
  C      -92.461    -503.735    -531.426
  O      -93.801    -503.442    -531.767
  H      -91.897    -502.800    -531.380
  H      -92.016    -504.378    -532.189
  H      -92.411    -504.224    -530.449
  P      -94.864    -504.637    -531.663
  C      -95.663    -504.268    -529.214
  O      -95.974    -504.168    -530.599
  C      -96.916    -504.659    -528.429
  O      -96.529    -504.933    -527.051
  C      -97.998    -503.572    -528.395
  O      -99.280    -504.208    -528.426
  C      -97.793    -502.931    -527.033
  O      -98.948    -502.268    -526.531
  C      -97.387    -504.150    -526.196
  N      -96.703    -503.778    -524.961
  C      -97.462    -503.162    -523.969
  O      -98.678    -502.987    -524.024
  N      -96.758    -502.736    -522.868
  C      -95.416    -502.844    -522.680
  O      -94.845    -502.425    -521.678
  C      -94.665    -503.494    -523.764
  C      -95.335    -503.924    -524.837
  O      -94.054    -505.772    -530.880
  O      -95.417    -505.121    -532.963
  H      -93.579    -506.346    -531.507
  H      -99.243    -501.635    -527.215
  H      -97.296    -502.287    -522.145
  H      -93.594    -503.586    -523.653
  H      -94.809    -504.388    -525.668
  H      -98.262    -504.761    -525.961
  H      -96.978    -502.199    -527.084
  H      -97.924    -502.841    -529.206
  H      -97.311    -505.595    -528.840
  H      -95.306    -503.301    -528.852
  H      -94.877    -505.018    -529.075
  P     -100.134    -504.077    -529.780
  C      -98.994    -505.833    -531.354
  O     -100.065    -505.517    -530.478
  O      -99.166    -503.158    -530.668
  O     -101.502    -503.524    -529.558
  H      -98.222    -503.344    -530.514
  H      -99.116    -506.831    -531.721
  H      -98.067    -505.759    -530.825
  H      -98.992    -505.148    -532.176

 6  7  8  9  10  11  12  13  14  15  16  27  31  32  33  34  35 0
 6-311+G(2d,p)
 ****
 36  37 0
 6-311+G(2d,p)
 ****
 1  2  3  4  5  17  18  19  20  21  22  23  24  25 0
 3-21G
 ****
 26  28  29  30  38  39  40  41  42  43  44  45 0
 3-21G
 ****


