%nproc=1
%NoSave
%Mem=1900MB
#P OB98/GEN NMR

erre ene a

0 1
  C       75.500     -18.650       3.029
  O       75.380     -17.280       3.371
  P       76.602     -16.491       4.034
  C       77.099     -15.084       1.874
  O       76.796     -15.114       3.251
  C       77.284     -13.624       1.438
  O       76.004     -12.967       1.342
  C       78.140     -12.846       2.436
  O       79.499     -12.839       2.030
  C       77.497     -11.472       2.421
  O       77.964     -10.710       1.294
  C       76.002     -11.830       2.246
  N       75.230     -12.202       3.446
  C       74.900     -11.226       4.382
  O       75.190     -10.040       4.263
  N       74.235     -11.673       5.497
  C       73.842     -12.959       5.729
  O       73.472     -13.385       6.817
  C       73.975     -13.875       4.593
  C       74.671     -13.470       3.532
  O       77.873     -17.352       3.588
  O       76.530     -16.324       5.516
  H       78.913     -10.542       1.434
  H       78.153     -17.950       4.305
  H       74.118     -10.996       6.244
  H       73.550     -14.866       4.680
  H       74.816     -14.146       2.692
  H       75.460     -11.015       1.753
  H       77.768     -10.901       3.308
  H       78.033     -13.273       3.441
  H       77.748     -13.608       0.444
  H       76.292     -15.553       1.301
  H       78.011     -15.656       1.676
  P       80.637     -12.463       3.089
  C       81.707     -14.788       3.226
  O       81.855     -13.458       2.771
  O       80.202     -12.419       4.516
  O       81.154     -11.034       2.580
  H       80.722     -10.323       3.096
  H       82.505     -15.396       2.796
  H       80.741     -15.196       2.914
  H       81.788     -14.816       4.316
  H       74.581     -18.993       2.601
  H       75.718     -19.219       3.908
  H       76.291     -18.772       2.319

 3  4  5  6  7  8  9  10  11  12  13  23  28  29  30  31  32 0
 6-311+G(2d,p)
 ****
 33  34 0
 6-311+G(2d,p)
 ****
 1  2  14  15  16  17  18  19  20  21  22  24  25  26  27 0
 3-21G
 ****
 35  36  37  38  39  40  41  42  43  44  45 0
 3-21G
 ****


