%nproc=1
%NoSave
%Mem=1900MB
#P OB98/GEN NMR

erre ene a

0 1
  C     -179.727      -8.016    -163.302
  O     -179.457      -9.299    -162.775
  P     -179.200      -9.531    -161.209
  C     -181.375     -10.899    -161.079
  O     -180.651      -9.790    -160.566
  C     -181.984     -11.734    -159.951
  O     -182.708     -12.861    -160.513
  C     -180.961     -12.296    -158.945
  O     -181.621     -12.312    -157.675
  C     -180.750     -13.707    -159.456
  O     -180.194     -14.567    -158.467
  C     -182.167     -14.065    -159.923
  N     -182.170     -15.187    -160.854
  C     -182.267     -16.464    -160.298
  O     -182.266     -16.612    -159.072
  N     -182.303     -17.550    -161.134
  C     -182.152     -17.378    -162.413
  N     -182.204     -18.491    -163.195
  C     -181.921     -16.058    -163.029
  C     -181.956     -15.016    -162.202
  O     -178.393      -8.471    -160.536
  O     -178.530     -10.980    -161.145
  H     -179.996     -15.433    -158.889
  H     -177.578     -10.932    -161.412
  H     -181.748     -15.973    -164.091
  H     -181.799     -14.012    -162.562
  H     -182.803     -14.321    -159.066
  H     -180.061     -13.689    -160.309
  H     -180.040     -11.718    -158.898
  H     -182.717     -11.109    -159.427
  H     -182.380     -19.375    -162.730
  H     -180.679     -11.526    -161.640
  H     -182.181     -18.459    -164.204
  H     -182.150     -10.552    -161.768
  P     -180.807     -12.588    -156.321
  C     -180.589     -10.075    -155.882
  O     -179.896     -11.299    -156.053
  O     -180.079     -13.894    -156.275
  O     -181.913     -12.499    -155.164
  H     -181.561     -12.899    -154.346
  H     -179.908      -9.343    -155.436
  H     -181.453     -10.202    -155.229
  H     -180.920      -9.702    -156.855
  H     -179.866      -8.087    -164.361
  H     -178.904      -7.364    -163.093
  H     -180.615      -7.625    -162.851

 3  4  5  6  7  8  9  10  11  12  13  23  27  28  29  30  32 0
 6-311+G(2d,p)
 ****
 34  35 0
 6-311+G(2d,p)
 ****
 1  2  14  15  16  17  18  19  20  21  22  24  25  26 0
 3-21G
 ****
 31  33  36  37  38  39  40  41  42  43  44  45  46 0
 3-21G
 ****


