%nproc=1
%NoSave
%Mem=1900MB
#P OB98/GEN NMR

erre ene a

0 1
  C       75.112     -75.656     -76.800
  O       76.277     -75.680     -77.629
  P       77.561     -74.872     -77.093
  C       79.508     -75.387     -75.439
  O       78.454     -75.901     -76.244
  C       79.946     -76.413     -74.398
  O       78.809     -76.952     -73.691
  C       80.663     -77.626     -74.976
  O       82.025     -77.343     -75.265
  C       80.549     -78.613     -73.826
  O       81.584     -78.364     -72.859
  C       79.169     -78.279     -73.234
  N       75.871     -81.805     -71.683
  C       76.788     -81.069     -70.957
  N       76.811     -81.289     -69.624
  N       77.608     -80.199     -71.487
  C       77.450     -80.068     -72.829
  C       76.583     -80.736     -73.660
  C       75.700     -81.716     -73.062
  O       74.892     -82.418     -73.662
  N       76.709     -80.322     -74.963
  C       77.635     -79.381     -74.915
  N       78.128     -79.200     -73.648
  O       76.938     -73.915     -75.969
  O       78.278     -74.104     -78.148
  H       82.438     -78.573     -73.293
  H       77.486     -73.116     -75.871
  H       75.267     -82.464     -71.226
  H       77.981     -78.807     -75.765
  H       79.192     -78.253     -72.138
  H       80.662     -79.657     -74.148
  H       76.159     -81.889     -69.141
  H       80.129     -78.015     -75.856
  H       77.453     -80.731     -69.071
  H       80.597     -75.906     -73.673
  H       79.177     -74.476     -74.935
  H       80.345     -75.103     -76.088
  P       82.362     -76.765     -76.724
  C       82.122     -74.342     -77.618
  O       82.492     -75.179     -76.539
  O       80.983     -76.954     -77.519
  O       83.500     -77.448     -77.410
  H       81.155     -77.069     -78.468
  H       81.195     -74.680     -78.083
  H       82.926     -74.327     -78.363
  H       81.976     -73.325     -77.239
  H       74.333     -76.225     -77.263
  H       74.786     -74.645     -76.671
  H       75.345     -76.080     -75.845

 3  4  5  6  7  8  9  10  11  12  23  26  30  31  33  0
 6-311+G(2d,p)
 ****
 35  36  37  38 0
 6-311+G(2d,p)
 ****
 1  2  13  14  15  16  17  18  19  20  21  22  24  25  27  28  29 0
 3-21G
 ****
 32  34  39  40  41  42  43  44  45  46  47  48  49 0
 3-21G
 ****


