%nproc=1
%NoSave
%Mem=1900MB
#P OB98/GEN NMR

erre ene a

0 1
  C      147.617    -219.680      66.012
  O      148.391    -220.410      66.949
  P      147.685    -220.836      68.329
  C      148.102    -218.463      69.301
  O      147.158    -219.487      69.021
  C      147.569    -217.504      70.368
  O      146.415    -216.800      69.833
  C      147.127    -218.186      71.673
  O      147.435    -217.278      72.736
  C      145.627    -218.310      71.475
  O      144.904    -218.556      72.670
  C      145.334    -216.986      70.775
  N      140.484    -215.386      71.028
  C      141.547    -215.172      71.837
  N      142.811    -215.624      71.700
  C      142.932    -216.364      70.586
  C      141.932    -216.686      69.678
  C      140.659    -216.159      69.932
  N      139.574    -216.390      69.109
  N      142.430    -217.490      68.672
  C      143.705    -217.655      68.970
  N      144.057    -216.974      70.104
  O      148.920    -221.262      69.250
  O      146.668    -221.930      68.205
  H      143.973    -218.770      72.459
  H      148.698    -222.036      69.800
  H      141.356    -214.554      72.711
  H      144.402    -218.257      68.408
  H      145.354    -216.140      71.475
  H      145.425    -219.155      70.803
  H      147.632    -219.139      71.858
  H      148.342    -216.753      70.576
  H      148.295    -217.888      68.388
  H      138.666    -216.139      69.481
  H      139.666    -217.123      68.420
  H      149.047    -218.915      69.616
  P      148.085    -217.858      74.087
  C      145.761    -217.722      75.175
  O      146.849    -218.558      74.838
  O      148.261    -216.516      74.939
  O      149.331    -218.660      73.919
  H      147.436    -215.994      74.966
  H      144.956    -218.338      75.587
  H      145.386    -217.207      74.279
  H      146.067    -216.990      75.927
  H      148.211    -219.467      65.148
  H      147.291    -218.763      66.456
  H      146.765    -220.260      65.725

 3  4  5  6  7  8  9  10  11  12  22  25  29  30  31  32 0
 6-311+G(2d,p)
 ****
 33  36  37 0
 6-311+G(2d,p)
 ****
 1  2  13  14  15  16  17  18  19  20  21  23  24  26 0
 3-21G
 ****
 27  28  34  35  38  39  40  41  42  43  44  45  46  47  48 0
 3-21G
 ****


