%nproc=1
%NoSave
%Mem=1900MB
#P OB98/GEN NMR

erre ene a

0 1
  C     -420.139     290.361    -179.913
  O     -421.529     290.505    -180.106
  H     -419.708     289.873    -180.790
  H     -419.945     289.740    -179.035
  H     -419.664     291.339    -179.782
  P     -422.324     291.382    -179.024
  C     -423.960     292.163    -180.879
  O     -423.810     291.577    -179.595
  C     -425.436     292.187    -181.280
  O     -426.208     292.930    -180.308
  C     -425.706     292.844    -182.632
  O     -425.486     291.946    -183.715
  C     -427.182     293.180    -182.487
  O     -427.972     291.990    -182.674
  C     -427.258     293.639    -181.019
  N     -429.530     298.168    -181.047
  C     -430.053     296.911    -181.297
  N     -431.366     296.852    -181.612
  N     -429.348     295.812    -181.260
  C     -428.043     296.023    -180.942
  C     -427.419     297.220    -180.671
  C     -428.206     298.427    -180.715
  O     -427.804     299.556    -180.479
  N     -426.096     297.031    -180.382
  C     -425.914     295.726    -180.498
  N     -427.070     295.073    -180.846
  O     -421.677     292.843    -179.185
  O     -422.231     290.904    -177.614
  H     -428.908     292.247    -182.550
  H     -421.636     293.266    -178.303
  H     -430.115     298.986    -181.112
  H     -424.973     295.212    -180.344
  H     -428.211     293.383    -180.551
  H     -427.521     293.911    -183.222
  H     -431.950     297.669    -181.715
  H     -425.136     293.774    -182.749
  H     -431.775     295.941    -181.769
  H     -425.800     291.154    -181.270
  H     -423.398     291.574    -181.613
  H     -423.559     293.187    -180.853
  P     -425.469     292.557    -185.195
  C     -424.517     290.277    -185.980
  O     -425.483     291.293    -186.184
  O     -423.982     293.125    -185.338
  O     -426.501     293.609    -185.456
  H     -423.954     293.823    -186.022
  H     -424.650     289.506    -186.710
  H     -424.635     289.864    -185.000
  H     -423.536     290.693    -186.076

 6  7  8  9  10  11  12  13  14  15  26  29  33  34 0
 6-311+G(2d,p)
 ****
 36  38  39  40  41 0
 6-311+G(2d,p)
 ****
 1  2  3  4  5  16  17  18  19  20  21  22  23  24  25 0
 3-21G
 ****
 27  28  30  31  32  35  37  42  43  44  45  46  47 0
 3-21G
 ****
 48  49 0
 3-21G
 ****


