%nproc=1
%NoSave
%Mem=1900MB
#P OB98/GEN NMR

erre ene a

0 1
  C     -106.881     -33.556     196.957
  O     -107.164     -32.342     196.255
  P     -108.373     -32.383     195.202
  C     -106.842     -33.042     193.210
  O     -107.966     -33.378     194.013
  C     -106.253     -34.303     192.578
  O     -107.179     -34.923     191.659
  C     -104.995     -34.040     191.759
  O     -103.877     -33.812     192.601
  C     -104.918     -35.318     190.932
  O     -104.363     -36.389     191.712
  C     -106.402     -35.602     190.644
  N     -108.024     -37.109     186.031
  C     -107.676     -37.803     187.138
  N     -107.251     -37.326     188.326
  C     -107.215     -35.984     188.315
  C     -107.543     -35.143     187.266
  C     -107.964     -35.758     186.074
  N     -108.303     -35.051     184.942
  N     -107.377     -33.822     187.630
  C     -106.932     -33.868     188.869
  N     -106.828     -35.152     189.332
  O     -108.320     -30.935     194.524
  O     -109.700     -32.652     195.828
  H     -104.993     -36.577     192.438
  H     -109.077     -30.397     194.826
  H     -107.746     -38.885     187.055
  H     -106.673     -33.004     189.471
  H     -106.640     -36.670     190.711
  H     -104.300     -35.212     190.034
  H     -105.148     -33.174     191.100
  H     -106.030     -35.016     193.383
  H     -106.081     -32.542     193.815
  H     -108.519     -35.570     184.107
  H     -108.179     -34.047     184.938
  H     -107.158     -32.327     192.445
  P     -103.397     -32.298     192.813
  C     -101.566     -32.236     191.012
  O     -102.884     -31.855     191.353
  O     -102.031     -32.500     193.615
  O     -104.403     -31.398     193.446
  H     -101.481     -33.201     193.221
  H     -101.361     -31.907     189.991
  H     -101.460     -33.322     191.062
  H     -100.851     -31.759     191.687
  H     -106.060     -33.399     197.624
  H     -106.629     -34.323     196.255
  H     -107.743     -33.854     197.516

 3  4  5  6  7  8  9  10  11  12  22  25  29  30  31  32 0
 6-311+G(2d,p)
 ****
 33  36  37 0
 6-311+G(2d,p)
 ****
 1  2  13  14  15  16  17  18  19  20  21  23  24  26 0
 3-21G
 ****
 27  28  34  35  38  39  40  41  42  43  44  45  46  47  48 0
 3-21G
 ****


