%nproc=1
%NoSave
%Mem=1900MB
#P OB98/GEN NMR

erre ene a

0 1
  C      297.077    -178.418      79.198
  O      297.549    -179.569      78.527
  H      296.525    -178.734      80.088
  H      296.400    -177.863      78.542
  H      297.911    -177.779      79.506
  P      298.659    -179.340      77.386
  C      298.485    -178.603      74.900
  O      297.934    -178.520      76.208
  C      298.175    -177.336      74.112
  O      298.750    -176.184      74.763
  C      298.712    -177.334      72.684
  O      297.835    -178.016      71.794
  C      298.733    -175.840      72.391
  O      297.392    -175.383      72.105
  C      299.209    -175.262      73.732
  N      302.999    -171.994      74.581
  C      301.640    -171.768      74.477
  N      301.233    -170.484      74.614
  N      300.755    -172.710      74.259
  C      301.311    -173.939      74.120
  C      302.643    -174.288      74.194
  C      303.606    -173.240      74.452
  O      304.823    -173.393      74.562
  N      302.822    -175.634      74.000
  C      301.604    -176.095      73.786
  N      300.652    -175.104      73.848
  O      298.839    -180.808      76.770
  O      299.957    -178.786      77.865
  H      296.793    -175.887      72.684
  H      299.663    -181.199      77.122
  H      303.638    -171.234      74.740
  H      301.357    -177.130      73.596
  H      298.763    -174.286      73.943
  H      299.346    -175.591      71.523
  H      301.861    -169.711      74.761
  H      299.735    -177.735      72.635
  H      300.237    -170.298      74.548
  H      297.083    -177.199      74.113
  H      298.053    -179.468      74.385
  H      299.570    -178.741      74.979
  P      298.482    -178.865      70.597
  C      299.752    -178.321      68.402
  O      299.187    -177.818      69.603
  O      297.191    -179.349      69.777
  O      299.324    -180.024      71.018
  H      297.082    -180.319      69.866
  H      300.182    -177.515      67.845
  H      298.988    -178.790      67.818
  H      300.511    -179.037      68.638

 6  7  8  9  10  11  12  13  14  15  26  29  33  34 0
 6-311+G(2d,p)
 ****
 36  38  39  40  41 0
 6-311+G(2d,p)
 ****
 1  2  3  4  5  16  17  18  19  20  21  22  23  24  25 0
 3-21G
 ****
 27  28  30  31  32  35  37  42  43  44  45  46  47 0
 3-21G
 ****
 48  49 0
 3-21G
 ****


