%nproc=1
%NoSave
%Mem=1900MB
#P OB98/GEN NMR

erre ene a

0 1
  C      690.596    -522.256     371.798
  O      689.542    -523.017     372.355
  H      690.320    -521.196     371.849
  H      690.745    -522.532     370.756
  H      691.519    -522.404     372.362
  P      689.758    -524.593     372.560
  C      687.515    -524.646     373.843
  O      688.305    -525.232     372.811
  C      686.157    -525.341     373.916
  O      685.377    -525.000     372.738
  C      686.236    -526.856     373.936
  O      686.629    -527.337     375.200
  C      684.815    -527.218     373.514
  O      683.918    -527.156     374.638
  C      684.484    -526.104     372.491
  N      684.594    -526.585     371.114
  C      683.521    -527.299     370.622
  O      682.495    -527.534     371.274
  N      683.663    -527.803     369.345
  C      684.813    -527.771     368.617
  O      684.977    -528.443     367.598
  C      685.897    -526.947     369.160
  C      685.753    -526.412     370.374
  O      690.797    -524.982     373.554
  O      690.124    -525.114     371.092
  H      691.088    -525.258     371.040
  H      683.905    -526.214     374.916
  H      682.897    -528.360     368.998
  H      686.806    -526.844     368.570
  H      686.559    -525.822     370.812
  H      683.461    -525.736     372.654
  H      684.760    -528.225     373.104
  H      686.925    -527.208     373.156
  H      685.621    -524.958     374.797
  H      687.379    -523.582     373.621
  H      688.051    -524.741     374.797
  P      687.654    -528.579     375.302
  C      686.251    -529.647     377.193
  O      686.846    -529.832     375.906
  O      688.953    -528.280     375.981
  O      687.889    -529.011     373.778
  H      688.852    -529.082     373.621
  H      685.746    -530.544     377.485
  H      685.549    -528.840     377.149
  H      687.013    -529.418     377.909

 6  7  8  9  10  11  12  13  14  15  16  27  31  32  33  34  35 0
 6-311+G(2d,p)
 ****
 36  37 0
 6-311+G(2d,p)
 ****
 1  2  3  4  5  17  18  19  20  21  22  23  24  25 0
 3-21G
 ****
 26  28  29  30  38  39  40  41  42  43  44  45 0
 3-21G
 ****


