%nproc=1
%NoSave
%Mem=1900MB
#P OB98/GEN NMR

erre ene a

0 1
  C      -30.963      77.833     260.828
  O      -31.587      76.567     260.798
  H      -30.322      77.886     261.712
  H      -31.710      78.628     260.888
  H      -30.340      77.973     259.938
  P      -32.637      76.252     259.629
  C      -34.490      75.342     261.180
  O      -33.556      75.043     260.146
  C      -35.052      74.046     261.774
  O      -33.943      73.300     262.333
  C      -36.072      74.307     262.893
  O      -37.311      73.631     262.690
  C      -35.290      73.984     264.160
  O      -36.084      73.581     265.257
  C      -34.277      72.936     263.685
  N      -33.074      72.858     264.511
  C      -33.172      72.177     265.720
  O      -34.184      71.616     266.137
  N      -32.027      72.142     266.474
  C      -30.832      72.712     266.149
  O      -29.839      72.641     266.862
  C      -30.797      73.435     264.869
  C      -31.902      73.476     264.121
  O      -32.052      76.056     258.271
  O      -33.637      77.503     259.661
  H      -36.718      74.303     265.446
  H      -33.422      78.111     258.931
  H      -32.083      71.642     267.345
  H      -29.867      73.908     264.583
  H      -31.910      74.001     263.170
  H      -34.732      71.944     263.668
  H      -34.750      74.887     264.469
  H      -36.363      75.363     262.917
  H      -35.483      73.444     260.965
  H      -35.294      75.941     260.743
  H      -33.995      75.925     261.963
  P      -38.715      74.355     262.465
  C      -40.030      72.953     264.251
  O      -39.874      73.339     262.890
  O      -38.877      75.057     261.159
  O      -38.744      75.475     263.627
  H      -39.242      76.237     263.266
  H      -40.852      72.274     264.337
  H      -40.220      73.820     264.848
  H      -39.135      72.475     264.591

 6  7  8  9  10  11  12  13  14  15  16  26  31  32  33  34  35 0
 6-311+G(2d,p)
 ****
 36  37 0
 6-311+G(2d,p)
 ****
 1  2  3  4  5  17  18  19  20  21  22  23  24  25 0
 3-21G
 ****
 27  28  29  30  38  39  40  41  42  43  44  45 0
 3-21G
 ****


