%nproc=1
%NoSave
%Mem=1900MB
#P OB98/GEN NMR

erre ene a

0 1
  C      167.328      45.746    -271.274
  O      168.451      46.095    -270.483
  P      168.350      46.164    -268.882
  C      170.479      44.715    -268.663
  O      169.851      45.961    -268.365
  C      171.931      44.952    -269.096
  O      171.951      45.541    -270.413
  C      172.706      45.915    -268.198
  O      173.098      45.273    -266.994
  C      173.839      46.323    -269.134
  O      174.860      45.296    -269.162
  C      173.126      46.383    -270.501
  N      172.769      47.750    -270.886
  C      173.773      48.494    -271.516
  O      174.882      48.014    -271.739
  N      173.476      49.776    -271.923
  C      172.292      50.280    -271.692
  N      172.039      51.521    -272.181
  C      171.234      49.535    -270.992
  C      171.529      48.295    -270.619
  O      167.346      45.232    -268.277
  O      168.076      47.704    -268.563
  H      175.547      45.605    -269.778
  H      167.113      47.946    -268.552
  H      170.268      50.000    -270.814
  H      170.798      47.683    -270.114
  H      173.754      45.944    -271.279
  H      174.320      47.258    -268.845
  H      172.095      46.790    -267.959
  H      172.434      43.982    -269.148
  H      172.735      51.920    -272.809
  H      169.941      44.237    -269.483
  H      171.093      51.862    -272.308
  H      170.440      44.066    -267.786
  P      173.782      46.187    -265.861
  C      173.128      44.738    -263.794
  O      174.159      45.176    -264.664
  O      172.555      47.039    -265.285
  O      174.895      47.051    -266.352
  H      172.567      47.945    -265.661
  H      173.502      43.899    -263.214
  H      172.260      44.420    -264.374
  H      172.844      45.553    -263.119
  H      167.603      45.758    -272.308
  H      166.541      46.451    -271.106
  H      166.993      44.766    -271.005

 3  4  5  6  7  8  9  10  11  12  13  23  27  28  29  30  32 0
 6-311+G(2d,p)
 ****
 34  35 0
 6-311+G(2d,p)
 ****
 1  2  14  15  16  17  18  19  20  21  22  24  25  26 0
 3-21G
 ****
 31  33  36  37  38  39  40  41  42  43  44  45  46 0
 3-21G
 ****


