%nproc=1
%NoSave
%Mem=1900MB
#P OB98/GEN NMR

erre ene a

0 1
  C        4.977     380.433     -87.099
  O        4.649     381.153     -88.295
  P        5.036     382.706     -88.368
  C        2.496     383.180     -88.081
  O        3.825     383.552     -87.748
  C        1.506     384.234     -87.577
  O        1.747     385.524     -88.185
  C        0.051     383.899     -87.877
  O       -0.494     383.011     -86.913
  C       -0.598     385.268     -87.745
  O       -0.812     385.574     -86.350
  C        0.471     386.191     -88.339
  N       -1.349     389.611     -91.592
  C       -1.271     389.650     -90.213
  N       -1.738     390.766     -89.615
  N       -0.776     388.680     -89.489
  C       -0.331     387.633     -90.224
  C       -0.357     387.479     -91.591
  C       -0.918     388.554     -92.379
  O       -1.029     388.567     -93.602
  N        0.179     386.276     -91.967
  C        0.548     385.712     -90.834
  N        0.245     386.489     -89.744
  O        4.926     383.025     -89.934
  O        6.393     383.025     -87.833
  H       -1.437     384.904     -86.013
  H        5.526     383.757     -90.164
  H       -1.743     390.384     -92.100
  H        1.036     384.749     -90.751
  H        0.536     387.152     -87.813
  H       -1.575     385.315     -88.232
  H       -2.083     391.569     -90.113
  H       -0.066     383.522     -88.901
  H       -1.655     390.825     -88.606
  H        1.636     384.332     -86.491
  H        2.253     382.206     -87.645
  H        2.423     383.045     -89.164
  P       -0.971     381.562     -87.412
  C       -3.447     382.345     -87.431
  O       -2.371     381.790     -88.157
  O       -1.370     380.830     -86.046
  O        0.059     380.796     -88.171
  H       -1.204     379.873     -86.121
  H       -4.254     382.577     -88.129
  H       -3.141     383.268     -86.930
  H       -3.813     381.624     -86.694
  H        4.660     379.416     -87.197
  H        4.481     380.883     -86.265
  H        6.035     380.463     -86.943

 3  4  5  6  7  8  9  10  11  12  23  26  30  31 0
 6-311+G(2d,p)
 ****
 33  35  36  37  38 0
 6-311+G(2d,p)
 ****
 1  2  13  14  15  16  17  18  19  20  21  22  24  25 0
 3-21G
 ****
 27  28  29  32  34  39  40  41  42  43  44  45  46  47  48  49 0
 3-21G
 ****


