%nproc=1
%NoSave
%Mem=1900MB
#P OB98/GEN NMR

erre ene a

0 1
  C     -475.567     577.836     637.194
  O     -475.722     578.650     638.358
  P     -474.802     578.262     639.611
  C     -472.217     578.162     639.914
  O     -473.315     578.841     639.337
  C     -470.895     578.837     639.519
  O     -470.763     578.999     638.094
  C     -470.734     580.233     640.113
  O     -470.327     580.137     641.468
  C     -469.674     580.834     639.198
  O     -468.344     580.457     639.628
  C     -469.998     580.198     637.838
  N     -469.640     583.656     634.136
  C     -468.652     583.115     634.943
  N     -467.394     583.532     634.710
  N     -468.892     582.243     635.888
  C     -470.206     581.922     636.002
  C     -471.258     582.376     635.254
  C     -470.983     583.344     634.218
  O     -471.825     583.854     633.475
  N     -472.430     581.770     635.628
  C     -472.095     581.060     636.687
  N     -470.747     581.058     636.912
  O     -474.631     576.677     639.477
  O     -475.393     578.642     640.937
  H     -468.322     579.492     639.782
  H     -475.114     576.225     640.193
  H     -469.394     584.345     633.431
  H     -472.796     580.487     637.306
  H     -469.089     579.902     637.305
  H     -469.695     581.935     639.214
  H     -467.127     584.198     633.996
  H     -471.678     580.786     640.026
  H     -466.651     583.130     635.282
  H     -470.075     578.195     639.872
  H     -472.208     577.115     639.587
  H     -472.340     578.154     641.004
  P     -471.336     580.652     642.599
  C     -472.875     579.458     644.328
  O     -472.209     579.401     643.070
  O     -472.378     581.560     641.771
  O     -470.690     581.440     643.704
  H     -472.548     582.387     642.271
  H     -473.782     578.836     644.284
  H     -473.150     580.477     644.591
  H     -472.202     579.043     645.103
  H     -476.225     578.184     636.425
  H     -475.804     576.821     637.435
  H     -474.555     577.894     636.850

 3  4  5  6  7  8  9  10  11  12  23  26  30  31 0
 6-311+G(2d,p)
 ****
 33  35  36  37  38 0
 6-311+G(2d,p)
 ****
 1  2  13  14  15  16  17  18  19  20  21  22  24  25 0
 3-21G
 ****
 27  28  29  32  34  39  40  41  42  43  44  45  46  47  48  49 0
 3-21G
 ****


