%nproc=1
%NoSave
%Mem=1900MB
#P OB98/GEN NMR

erre ene a

0 1
  C     -163.002    1541.466     -55.248
  O     -161.601    1541.277     -55.106
  H     -163.394    1540.672     -55.887
  H     -163.207    1542.431     -55.708
  H     -163.484    1541.408     -54.272
  P     -160.809    1542.414     -54.290
  C     -161.169    1541.080     -52.069
  O     -160.247    1541.622     -53.007
  C     -160.416    1540.371     -50.949
  O     -159.887    1539.104     -51.406
  C     -159.209    1541.141     -50.413
  O     -159.554    1542.197     -49.528
  C     -158.483    1540.012     -49.687
  O     -159.176    1539.719     -48.451
  C     -158.635    1538.861     -50.700
  N     -157.504    1538.794     -51.656
  C     -156.227    1538.679     -51.097
  O     -156.072    1538.643     -49.878
  N     -155.149    1538.644     -51.944
  C     -155.321    1538.693     -53.226
  N     -154.213    1538.657     -54.015
  C     -156.656    1538.803     -53.856
  C     -157.689    1538.838     -53.016
  O     -161.982    1543.310     -53.657
  O     -159.788    1543.187     -55.054
  H     -158.754    1538.911     -48.080
  H     -161.603    1543.948     -53.014
  H     -156.759    1538.849     -54.925
  H     -158.705    1538.912     -53.405
  H     -158.726    1537.894     -50.193
  H     -157.455    1540.259     -49.418
  H     -158.562    1541.499     -51.226
  H     -161.130    1540.148     -50.149
  H     -153.316    1538.651     -53.551
  H     -161.811    1540.366     -52.606
  H     -154.236    1538.836     -55.013
  H     -161.785    1541.872     -51.649
  P     -158.399    1543.235     -49.136
  C     -158.896    1545.066     -50.948
  O     -158.921    1544.695     -49.554
  O     -157.250    1542.929     -50.215
  O     -157.903    1543.124     -47.730
  H     -156.367    1543.056     -49.810
  H     -159.273    1546.061     -51.059
  H     -159.506    1544.389     -51.508
  H     -157.890    1545.023     -51.310

 6  7  8  9  10  11  12  13  14  15  16  26  30  31  32  33  35 0
 6-311+G(2d,p)
 ****
 37  38 0
 6-311+G(2d,p)
 ****
 1  2  3  4  5  17  18  19  20  21  22  23  24  25 0
 3-21G
 ****
 27  28  29  34  36  39  40  41  42  43  44  45  46 0
 3-21G
 ****


