%nproc=1
%NoSave
%Mem=1900MB
#P OB98/GEN NMR

erre ene a

0 1
  C     -321.430      75.560       0.617
  O     -320.549      76.079      -0.359
  H     -320.939      75.605       1.593
  H     -321.675      74.517       0.398
  H     -322.347      76.155       0.658
  P     -321.040      76.116      -1.882
  C     -320.676      78.574      -2.581
  O     -320.162      77.250      -2.603
  C     -319.748      79.507      -3.350
  O     -318.602      79.854      -2.547
  C     -319.200      78.906      -4.645
  O     -320.159      79.014      -5.685
  C     -317.979      79.785      -4.861
  O     -318.388      81.066      -5.377
  C     -317.446      79.933      -3.427
  N     -312.703      78.222      -3.941
  C     -313.339      79.275      -4.570
  N     -312.620      79.938      -5.503
  N     -314.572      79.631      -4.325
  C     -315.188      78.831      -3.424
  C     -314.671      77.752      -2.748
  C     -313.285      77.403      -2.986
  O     -312.678      76.489      -2.439
  N     -315.618      77.147      -1.960
  C     -316.697      77.886      -2.132
  N     -316.492      78.912      -3.026
  O     -322.517      76.268      -2.099
  O     -320.476      74.757      -2.508
  H     -318.508      80.952      -6.338
  H     -321.135      74.041      -2.447
  H     -311.754      77.988      -4.188
  H     -317.645      77.721      -1.637
  H     -316.972      80.907      -3.258
  H     -317.266      79.362      -5.568
  H     -311.790      79.538      -5.924
  H     -318.861      77.873      -4.504
  H     -313.082      80.682      -6.008
  H     -320.294      80.437      -3.550
  H     -320.745      78.886      -1.533
  H     -321.674      78.603      -3.023
  P     -320.132      78.018      -6.945
  C     -322.713      77.921      -7.044
  O     -321.513      78.287      -7.714
  O     -319.874      76.589      -6.606
  O     -319.053      78.652      -7.936
  H     -318.130      78.340      -7.770
  H     -323.553      78.153      -7.665
  H     -322.788      78.463      -6.125
  H     -322.701      76.871      -6.838

 6  7  8  9  10  11  12  13  14  15  26  29  33  34 0
 6-311+G(2d,p)
 ****
 36  38  39  40  41 0
 6-311+G(2d,p)
 ****
 1  2  3  4  5  16  17  18  19  20  21  22  23  24  25 0
 3-21G
 ****
 27  28  30  31  32  35  37  42  43  44  45  46  47 0
 3-21G
 ****
 48  49 0
 3-21G
 ****


