%nproc=1
%NoSave
%Mem=1900MB
#P OB98/GEN NMR

erre ene a

0 1
  C     -221.515      -2.930     131.027
  O     -220.808      -1.698     131.006
  P     -219.990      -1.292     132.329
  C     -221.686       0.609     132.820
  O     -221.057      -0.577     133.291
  C     -223.125       0.682     133.311
  O     -223.784      -0.578     133.080
  C     -223.275       0.952     134.799
  O     -223.136       2.331     135.106
  C     -224.701       0.478     135.044
  O     -225.627       1.513     134.663
  C     -224.815      -0.722     134.090
  N     -227.118      -5.001     135.513
  C     -227.622      -3.906     134.838
  N     -228.919      -3.975     134.467
  N     -226.920      -2.842     134.555
  C     -225.629      -2.931     134.951
  C     -225.013      -3.960     135.629
  C     -225.814      -5.111     135.981
  O     -225.440      -6.082     136.634
  N     -223.685      -3.692     135.844
  C     -223.490      -2.522     135.268
  N     -224.646      -2.006     134.739
  O     -219.074      -0.080     131.829
  O     -219.183      -2.387     132.936
  H     -225.485       2.260     135.275
  H     -218.279      -0.010     132.392
  H     -227.697      -5.802     135.689
  H     -222.536      -2.019     135.211
  H     -225.778      -0.721     133.565
  H     -224.898       0.243     136.094
  H     -229.469      -4.816     134.539
  H     -222.579       0.339     135.384
  H     -229.296      -3.199     133.939
  H     -223.649       1.449     132.726
  H     -221.683       0.609     131.725
  H     -221.114       1.475     133.171
  P     -221.894       2.739     136.041
  C     -223.546       4.133     137.483
  O     -222.543       3.135     137.451
  O     -221.417       4.136     135.428
  O     -220.797       1.730     136.078
  H     -220.471       4.283     135.621
  H     -224.191       4.081     136.601
  H     -223.076       5.119     137.534
  H     -224.162       3.986     138.374
  H     -222.010      -3.073     130.089
  H     -222.239      -2.912     131.814
  H     -220.828      -3.733     131.193

 3  4  5  6  7  8  9  10  11  12  23  26  30  31  33  0
 6-311+G(2d,p)
 ****
 35  36  37  38 0
 6-311+G(2d,p)
 ****
 1  2  13  14  15  16  17  18  19  20  21  22  24  25  27  28  29 0
 3-21G
 ****
 32  34  39  40  41  42  43  44  45  46  47  48  49 0
 3-21G
 ****


