%nproc=1
%NoSave
%Mem=1900MB
#P OB98/GEN NMR

erre ene a

0 1
  C     -363.257     753.824    -132.591
  O     -361.914     753.567    -132.179
  P     -361.324     752.089    -132.357
  C     -361.585     749.826    -131.073
  O     -362.116     751.123    -131.360
  C     -362.099     749.316    -129.731
  O     -361.298     749.889    -128.661
  C     -363.552     749.653    -129.436
  O     -364.117     748.572    -128.669
  C     -363.460     750.888    -128.554
  O     -364.625     751.142    -127.792
  C     -362.226     750.511    -127.726
  N     -361.623     751.665    -127.036
  C     -362.242     752.121    -125.898
  O     -363.278     751.633    -125.409
  N     -361.698     753.233    -125.302
  C     -360.661     753.956    -125.807
  O     -360.283     755.032    -125.308
  C     -360.032     753.427    -127.023
  C     -360.522     752.302    -127.586
  O     -359.856     752.177    -131.709
  O     -361.267     751.602    -133.775
  H     -364.426     751.868    -127.180
  H     -359.191     752.281    -132.399
  H     -362.133     753.580    -124.468
  H     -359.161     753.971    -127.434
  H     -360.088     751.912    -128.494
  H     -362.487     749.740    -126.993
  H     -363.260     751.770    -129.175
  H     -364.167     749.826    -130.336
  H     -361.928     748.238    -129.703
  H     -360.500     749.890    -131.058
  H     -361.875     749.128    -131.887
  P     -365.698     748.287    -128.801
  C     -367.790     748.794    -127.309
  O     -366.399     748.943    -127.516
  O     -365.748     746.724    -128.493
  O     -366.279     748.653    -130.156
  H     -365.173     746.455    -127.751
  H     -368.144     747.817    -127.656
  H     -368.326     749.579    -127.822
  H     -367.987     748.879    -126.238
  H     -363.496     754.850    -132.407
  H     -363.926     753.197    -132.039
  H     -363.355     753.617    -133.636

 3  4  5  6  7  8  9  10  11  12  13  23  28  29  30  31  32 0
 6-311+G(2d,p)
 ****
 33  34 0
 6-311+G(2d,p)
 ****
 1  2  14  15  16  17  18  19  20  21  22  24  25  26 0
 3-21G
 ****
 27  35  36  37  38  39  40  41  42  43  44  45 0
 3-21G
 ****


