%nproc=1
%NoSave
%Mem=1900MB
#P OB98/GEN NMR

erre ene a

0 1
  C     -168.124      31.421     263.516
  O     -168.717      30.515     264.426
  P     -168.785      30.856     265.991
  C     -167.092      29.062     266.764
  O     -167.342      30.457     266.575
  C     -165.612      28.805     267.032
  O     -164.810      29.251     265.913
  C     -165.063      29.531     268.250
  O     -165.457      28.873     269.438
  C     -163.565      29.490     267.968
  O     -162.997      28.232     268.365
  C     -163.525      29.646     266.431
  N     -163.170      31.003     266.025
  C     -161.800      31.269     265.905
  O     -160.974      30.400     266.175
  N     -161.402      32.534     265.538
  C     -162.298      33.450     265.324
  N     -161.841      34.684     264.972
  C     -163.745      33.220     265.463
  C     -164.109      31.983     265.812
  O     -169.953      30.282     266.723
  O     -168.748      32.462     266.015
  H     -163.119      28.171     269.336
  H     -169.610      32.846     265.729
  H     -164.452      34.019     265.288
  H     -165.151      31.726     265.944
  H     -162.790      28.954     265.997
  H     -163.024      30.274     268.507
  H     -165.409      30.571     268.249
  H     -165.474      27.717     267.142
  H     -160.839      34.809     264.918
  H     -167.398      28.534     265.853
  H     -162.444      35.478     264.817
  H     -167.707      28.698     267.592
  P     -165.613      29.708     270.796
  C     -163.351      28.869     271.671
  O     -164.146      30.007     271.363
  O     -166.576      29.141     271.790
  O     -166.098      31.154     270.293
  H     -166.824      31.464     270.872
  H     -162.301      29.179     271.720
  H     -163.458      28.095     270.903
  H     -163.644      28.468     272.639
  H     -168.175      31.017     262.526
  H     -167.100      31.578     263.785
  H     -168.648      32.353     263.548

 3  4  5  6  7  8  9  10  11  12  13  23  27  28  29  30  32 0
 6-311+G(2d,p)
 ****
 34  35 0
 6-311+G(2d,p)
 ****
 1  2  14  15  16  17  18  19  20  21  22  24  25  26 0
 3-21G
 ****
 31  33  36  37  38  39  40  41  42  43  44  45  46 0
 3-21G
 ****


