%nproc=1
%NoSave
%Mem=1900MB
#P OB98/GEN NMR

erre ene a

0 1
  C      280.466     -60.507      83.650
  O      281.070     -61.775      83.496
  H      279.934     -60.258      82.730
  H      281.234     -59.750      83.827
  H      279.755     -60.520      84.480
  P      281.835     -62.375      84.773
  C      279.669     -62.886      86.107
  O      280.819     -63.415      85.462
  C      279.005     -63.947      86.981
  O      277.906     -63.329      87.720
  C      278.422     -65.135      86.202
  O      278.586     -66.314      87.001
  C      276.938     -64.807      86.142
  O      276.131     -65.958      85.911
  C      276.749     -64.163      87.515
  N      273.923     -61.370      90.601
  C      275.151     -61.968      90.804
  N      275.717     -61.798      92.019
  N      275.771     -62.673      89.897
  C      275.107     -62.734      88.718
  C      273.885     -62.194      88.392
  C      273.195     -61.436      89.416
  O      272.097     -60.902      89.300
  N      273.538     -62.503      87.099
  C      274.547     -63.228      86.648
  N      275.520     -63.395      87.595
  O      281.850     -61.135      85.785
  O      283.205     -62.900      84.511
  H      275.193     -65.688      85.996
  H      282.681     -60.631      85.690
  H      273.481     -60.849      91.339
  H      274.618     -63.656      85.658
  H      276.714     -64.905      88.322
  H      276.743     -64.085      85.339
  H      275.320     -61.230      92.751
  H      278.868     -65.290      85.215
  H      276.638     -62.190      92.174
  H      279.732     -64.288      87.729
  H      278.958     -62.551      85.345
  H      279.963     -62.026      86.719
  P      279.824     -67.276      86.678
  C      281.296     -66.720      88.748
  O      280.511     -67.685      88.067
  O      280.898     -66.272      86.038
  O      279.503     -68.403      85.754
  H      281.478     -66.758      85.424
  H      281.681     -67.146      89.651
  H      280.690     -65.870      88.985
  H      282.109     -66.416      88.122

 6  7  8  9  10  11  12  13  14  15  26  29  33  34 0
 6-311+G(2d,p)
 ****
 36  38  39  40  41 0
 6-311+G(2d,p)
 ****
 1  2  3  4  5  16  17  18  19  20  21  22  23  24  25 0
 3-21G
 ****
 27  28  30  31  32  35  37  42  43  44  45  46  47 0
 3-21G
 ****
 48  49 0
 3-21G
 ****


