%nproc=1
%NoSave
%Mem=1900MB
#P OB98/GEN NMR

erre ene a

0 1
  C      221.804     606.805    -937.556
  O      221.470     608.021    -938.233
  P      220.070     608.691    -937.832
  C      220.762     611.105    -938.527
  O      219.870     610.015    -938.719
  C      221.163     611.724    -939.867
  O      222.236     611.001    -940.500
  C      220.031     611.770    -940.884
  O      219.178     612.867    -940.602
  C      220.812     611.932    -942.204
  O      221.136     613.315    -942.449
  C      222.067     611.103    -941.926
  N      224.150     608.170    -945.521
  C      224.270     609.528    -945.318
  N      225.096     610.162    -946.143
  N      223.658     610.163    -944.332
  C      222.891     609.365    -943.584
  C      222.681     608.004    -943.678
  C      223.361     607.299    -944.748
  O      223.292     606.100    -944.977
  N      221.850     607.538    -942.679
  C      221.456     608.641    -942.071
  N      222.105     609.774    -942.525
  O      220.365     609.284    -936.353
  O      218.919     607.749    -937.803
  H      221.708     613.628    -941.724
  H      219.873     608.770    -935.682
  H      224.619     607.710    -946.282
  H      220.746     608.661    -941.256
  H      222.981     611.606    -942.311
  H      220.219     611.600    -943.047
  H      225.591     609.747    -946.904
  H      219.485     610.824    -940.877
  H      225.218     611.189    -946.006
  H      221.519     612.748    -939.661
  H      221.655     610.788    -937.979
  H      220.251     611.847    -937.889
  P      217.750     612.556    -939.974
  C      218.099     614.184    -937.973
  O      217.309     613.818    -939.085
  O      218.079     611.420    -938.864
  O      216.732     612.048    -940.933
  H      217.404     610.700    -938.914
  H      218.028     615.275    -937.835
  H      219.150     613.944    -938.151
  H      217.726     613.679    -937.085
  H      222.753     606.453    -937.903
  H      221.055     606.068    -937.757
  H      221.854     606.985    -936.502

 3  4  5  6  7  8  9  10  11  12  23  26  30  31 0
 6-311+G(2d,p)
 ****
 33  35  36  37  38 0
 6-311+G(2d,p)
 ****
 1  2  13  14  15  16  17  18  19  20  21  22  24  25 0
 3-21G
 ****
 27  28  29  32  34  39  40  41  42  43  44  45  46  47  48  49 0
 3-21G
 ****


