%nproc=1
%NoSave
%Mem=1900MB
#P OB98/GEN NMR

erre ene a

0 1
  C     -266.718     290.442    -109.896
  O     -266.128     289.692    -108.852
  H     -266.172     290.243    -110.822
  H     -266.661     291.511    -109.674
  H     -267.760     290.140    -110.031
  P     -266.764     289.870    -107.391
  C     -268.015     287.612    -107.193
  O     -268.117     289.009    -107.438
  C     -268.408     287.291    -105.753
  O     -269.669     287.905    -105.434
  C     -268.569     285.805    -105.461
  O     -267.310     285.214    -105.186
  C     -269.446     285.848    -104.219
  O     -268.631     286.110    -103.060
  C     -270.368     287.050    -104.493
  N     -275.200     285.713    -103.391
  C     -274.094     285.791    -102.620
  N     -272.831     286.098    -102.989
  C     -272.769     286.355    -104.306
  C     -273.813     286.312    -105.218
  C     -275.080     285.979    -104.714
  N     -276.207     285.897    -105.503
  N     -273.371     286.628    -106.486
  C     -272.097     286.917    -106.330
  N     -271.674     286.731    -105.037
  O     -266.895     291.276    -106.908
  O     -265.793     288.940    -106.519
  H     -268.030     285.347    -102.960
  H     -265.580     288.123    -107.002
  H     -274.241     285.573    -101.567
  H     -271.439     287.281    -107.113
  H     -270.545     287.639    -103.585
  H     -269.964     284.904    -104.037
  H     -269.108     285.289    -106.264
  H     -267.653     287.739    -105.091
  H     -266.991     287.269    -107.382
  H     -277.023     285.467    -105.099
  H     -276.087     285.968    -106.503
  H     -268.683     287.102    -107.893
  P     -266.979     283.715    -105.654
  C     -265.281     284.562    -107.391
  O     -266.498     283.857    -107.178
  O     -268.069     282.735    -105.405
  O     -265.626     283.351    -104.883
  H     -265.488     282.386    -104.893
  H     -265.065     284.592    -108.438
  H     -264.486     284.064    -106.876
  H     -265.377     285.560    -107.018

 6  7  8  9  10  11  12  13  14  15  25  28  32  33  34  35 0
 6-311+G(2d,p)
 ****
 36  39  40 0
 6-311+G(2d,p)
 ****
 1  2  3  4  5  16  17  18  19  20  21  22  23  24 0
 3-21G
 ****
 26  27  29  30  31  37  38  41  42  43  44  45  46  47 0
 3-21G
 ****
 48 0
 3-21G
 ****


