%nproc=1
%NoSave
%Mem=1900MB
#P OB98/GEN NMR

erre ene a

0 1
  C     -128.751     220.071     -80.902
  O     -129.426     220.032     -79.647
  P     -128.710     219.827     -78.237
  C     -130.651     220.897     -76.837
  O     -129.841     219.763     -77.108
  C     -131.265     220.879     -75.426
  O     -132.044     219.667     -75.252
  C     -130.164     220.845     -74.362
  O     -129.539     222.043     -73.948
  C     -130.758     220.029     -73.223
  O     -131.370     220.846     -72.224
  C     -131.810     219.162     -73.920
  N     -131.401     214.713     -71.425
  C     -131.770     215.953     -70.944
  N     -132.018     216.036     -69.618
  N     -131.873     217.020     -71.692
  C     -131.515     216.817     -72.977
  C     -131.111     215.641     -73.570
  C     -131.060     214.451     -72.745
  O     -130.751     213.328     -73.124
  N     -130.808     215.822     -74.896
  C     -130.999     217.109     -75.099
  N     -131.438     217.757     -73.965
  O     -127.539     220.713     -77.971
  O     -128.165     218.310     -78.316
  H     -130.685     221.429     -71.850
  H     -127.335     218.285     -77.796
  H     -131.362     213.920     -70.808
  H     -130.846     217.620     -76.043
  H     -132.773     219.210     -73.397
  H     -129.975     219.452     -72.714
  H     -131.841     215.284     -68.972
  H     -129.351     220.230     -74.767
  H     -132.074     216.979     -69.226
  H     -131.966     221.706     -75.296
  H     -131.439     220.911     -77.597
  H     -130.072     221.811     -76.974
  P     -127.981     222.394     -74.083
  C     -128.415     224.854     -74.660
  O     -127.796     223.948     -73.760
  O     -127.705     222.330     -75.659
  O     -127.061     221.479     -73.344
  H     -126.748     222.272     -75.833
  H     -127.974     225.845     -74.528
  H     -129.484     224.907     -74.448
  H     -128.261     224.534     -75.698
  H     -129.464     220.219     -81.686
  H     -128.236     219.146     -81.059
  H     -128.047     220.876     -80.903

 3  4  5  6  7  8  9  10  11  12  23  26  30  31 0
 6-311+G(2d,p)
 ****
 33  35  36  37  38 0
 6-311+G(2d,p)
 ****
 1  2  13  14  15  16  17  18  19  20  21  22  24  25 0
 3-21G
 ****
 27  28  29  32  34  39  40  41  42  43  44  45  46  47  48  49 0
 3-21G
 ****


