%nproc=1
%NoSave
%Mem=1900MB
#P OB98/GEN NMR

erre ene a

0 1
  C      519.376    -267.966     159.833
  O      520.339    -267.241     159.094
  H      519.628    -267.910     160.894
  H      519.385    -269.015     159.525
  H      518.378    -267.543     159.682
  P      520.096    -267.099     157.516
  C      520.708    -264.565     157.566
  O      520.987    -265.852     157.032
  C      521.702    -263.549     157.005
  O      522.980    -263.732     157.676
  C      521.947    -263.699     155.497
  O      522.118    -262.400     154.919
  C      523.251    -264.473     155.431
  O      523.963    -264.293     154.212
  C      523.989    -263.905     156.652
  N      525.057    -264.783     157.122
  C      526.245    -264.186     157.531
  O      526.434    -262.973     157.596
  N      527.255    -265.049     157.879
  C      527.201    -266.413     157.828
  O      528.145    -267.133     158.129
  C      525.919    -266.986     157.378
  C      524.927    -266.156     157.051
  O      518.602    -266.536     157.421
  O      520.289    -268.345     156.718
  H      517.960    -267.271     157.367
  H      524.456    -263.450     154.274
  H      528.121    -264.631     158.180
  H      525.849    -268.063     157.321
  H      523.978    -266.550     156.701
  H      524.396    -262.915     156.426
  H      523.061    -265.542     155.564
  H      521.137    -264.226     154.989
  H      521.352    -262.541     157.251
  H      520.801    -264.604     158.654
  H      519.684    -264.281     157.305
  P      520.793    -261.578     154.535
  C      522.163    -259.368     154.250
  O      521.288    -260.323     153.665
  O      520.390    -260.955     155.948
  O      519.746    -262.431     153.895
  H      521.155    -260.685     156.488
  H      522.389    -258.606     153.534
  H      523.068    -259.852     154.553
  H      521.691    -258.927     155.103

 6  7  8  9  10  11  12  13  14  15  16  27  31  32  33  34  35 0
 6-311+G(2d,p)
 ****
 36  37 0
 6-311+G(2d,p)
 ****
 1  2  3  4  5  17  18  19  20  21  22  23  24  25 0
 3-21G
 ****
 26  28  29  30  38  39  40  41  42  43  44  45 0
 3-21G
 ****


