%nproc=1
%NoSave
%Mem=1900MB
#P OB98/GEN NMR

erre ene a

0 1
  C      -74.347       5.080     219.637
  O      -75.467       5.807     220.112
  P      -75.853       7.156     219.329
  C      -75.571       8.330     221.636
  O      -75.346       8.378     220.232
  C      -74.400       8.971     222.378
  O      -73.154       8.421     221.907
  C      -74.277      10.476     222.187
  O      -75.242      11.173     222.957
  C      -72.832      10.696     222.627
  O      -72.750      10.706     224.060
  C      -72.135       9.444     222.066
  N      -68.223      11.749     219.699
  C      -68.611      11.732     220.994
  N      -69.676      11.115     221.543
  C      -70.375      10.452     220.608
  C      -70.115      10.396     219.249
  C      -68.979      11.081     218.794
  N      -68.590      11.099     217.472
  N      -71.067       9.638     218.597
  C      -71.881       9.234     219.551
  N      -71.498       9.687     220.784
  O      -77.443       7.219     219.478
  O      -75.422       7.197     217.896
  H      -71.804      10.787     224.297
  H      -77.852       7.615     218.684
  H      -67.980      12.290     221.680
  H      -72.752       8.611     219.399
  H      -71.372       9.049     222.746
  H      -72.411      11.641     222.266
  H      -74.388      10.739     221.128
  H      -74.503       8.729     223.444
  H      -75.665       7.288     221.957
  H      -67.851      11.736     217.210
  H      -69.229      10.722     216.784
  H      -76.508       8.848     221.863
  P      -76.405      11.941     222.159
  C      -75.338      14.235     222.610
  O      -75.683      13.276     221.626
  O      -77.312      12.487     223.356
  O      -77.106      11.124     221.131
  H      -76.783      12.930     224.043
  H      -74.813      15.060     222.122
  H      -74.680      13.788     223.361
  H      -76.242      14.624     223.087
  H      -74.202       4.211     220.244
  H      -73.475       5.698     219.685
  H      -74.518       4.783     218.623

 3  4  5  6  7  8  9  10  11  12  22  25  29  30  31  32 0
 6-311+G(2d,p)
 ****
 33  36  37 0
 6-311+G(2d,p)
 ****
 1  2  13  14  15  16  17  18  19  20  21  23  24  26 0
 3-21G
 ****
 27  28  34  35  38  39  40  41  42  43  44  45  46  47  48 0
 3-21G
 ****


