%nproc=1
%NoSave
%Mem=1900MB
#P OB98/GEN NMR

erre ene a

0 1
  C      385.083     186.095     192.760
  O      384.816     187.411     192.256
  P      383.701     188.388     192.869
  C      385.004     189.558     194.780
  O      384.017     188.591     194.432
  C      384.742     190.120     196.180
  O      385.281     189.229     197.186
  C      385.404     191.466     196.471
  O      384.766     192.538     195.808
  C      385.305     191.513     197.996
  O      384.028     192.015     198.420
  C      385.450     190.029     198.388
  N      386.716     189.731     199.041
  C      386.783     189.973     200.418
  O      385.831     190.490     201.009
  N      387.935     189.637     201.082
  C      388.958     189.196     200.422
  N      390.066     188.862     201.144
  C      388.971     189.061     198.950
  C      387.832     189.341     198.332
  O      382.298     187.953     192.592
  O      383.994     189.829     192.233
  H      383.170     190.351     192.205
  H      384.031     192.978     198.244
  H      389.864     188.730     198.439
  H      387.750     189.247     197.255
  H      384.622     189.731     199.046
  H      386.069     192.166     198.438
  H      386.463     191.417     196.179
  H      383.655     190.193     196.319
  H      390.023     188.954     202.146
  H      384.963     190.374     194.051
  H      390.910     188.495     200.727
  H      385.998     189.093     194.721
  P      385.692     193.761     195.337
  C      386.375     192.792     193.023
  O      386.784     193.179     194.319
  O      386.542     194.114     196.652
  O      384.942     194.953     194.838
  H      386.643     195.082     196.723
  H      387.220     192.896     192.345
  H      385.547     193.409     192.661
  H      386.059     191.747     193.043
  H      385.867     185.646     192.186
  H      384.198     185.498     192.685
  H      385.383     186.160     193.785

 3  4  5  6  7  8  9  10  11  12  13  24  27  28  29  30  32 0
 6-311+G(2d,p)
 ****
 34  35 0
 6-311+G(2d,p)
 ****
 1  2  14  15  16  17  18  19  20  21  22  23  25  26 0
 3-21G
 ****
 31  33  36  37  38  39  40  41  42  43  44  45  46 0
 3-21G
 ****


