%nproc=1
%NoSave
%Mem=1900MB
#P OB98/GEN NMR

erre ene a

0 1
  C      275.950    1066.545     828.814
  O      274.643    1066.783     828.255
  P      273.362    1066.334     829.067
  C      273.248    1063.731     829.081
  O      273.607    1064.905     829.767
  C      274.001    1062.484     829.621
  O      273.769    1062.360     831.081
  C      273.573    1061.130     829.008
  O      274.711    1060.302     828.997
  C      272.567    1060.605     830.012
  O      272.342    1059.219     829.917
  C      273.238    1061.042     831.341
  N      272.325    1061.067     832.484
  C      272.116    1059.849     833.138
  O      272.584    1058.788     832.790
  N      271.308    1059.927     834.273
  C      270.661    1061.053     834.725
  O      269.908    1061.030     835.712
  C      270.906    1062.270     833.973
  C      271.713    1062.232     832.887
  O      272.322    1065.944     827.894
  O      272.739    1067.365     829.954
  H      273.171    1058.768     830.113
  H      271.462    1066.324     828.066
  H      271.156    1059.073     834.768
  H      270.423    1063.199     834.309
  H      271.925    1063.134     832.328
  H      274.077    1060.379     831.546
  H      271.604    1061.129     829.869
  H      273.134    1061.254     827.992
  H      275.081    1062.653     829.490
  H      273.469    1063.842     828.008
  H      272.157    1063.568     829.180
  P      275.407    1059.963     827.560
  C      273.919    1058.000     826.613
  O      274.246    1059.401     826.602
  O      276.223    1058.646     827.905
  O      276.262    1061.050     826.990
  H      275.734    1058.007     828.467
  H      273.962    1057.616     827.606
  H      274.637    1057.494     825.978
  H      272.932    1057.876     826.176
  H      276.698    1066.908     828.140
  H      276.087    1065.495     828.967
  H      276.036    1067.056     829.750

 3  4  5  6  7  8  9  10  11  12  13  23  28  29  30  31  32 0
 6-311+G(2d,p)
 ****
 33  34 0
 6-311+G(2d,p)
 ****
 1  2  14  15  16  17  18  19  20  21  22  24  25  26 0
 3-21G
 ****
 27  35  36  37  38  39  40  41  42  43  44  45 0
 3-21G
 ****


