%nproc=1
%NoSave
%Mem=1900MB
#P OB98/GEN NMR

erre ene a

0 1
  C      332.717     -13.228     314.568
  O      331.776     -14.183     315.084
  P      331.061     -15.135     314.004
  C      328.538     -14.600     314.317
  O      329.599     -15.516     314.564
  C      327.165     -15.278     314.432
  O      327.160     -16.479     313.617
  C      326.775     -15.690     315.852
  O      325.361     -15.491     316.010
  C      327.017     -17.194     315.859
  O      326.256     -17.862     316.864
  C      326.632     -17.546     314.429
  N      325.929     -22.555     314.455
  C      325.092     -21.547     314.902
  N      323.921     -21.930     315.451
  N      325.392     -20.271     314.814
  C      326.580     -20.040     314.209
  C      327.484     -20.954     313.721
  C      327.165     -22.356     313.864
  O      327.881     -23.306     313.536
  N      328.584     -20.331     313.180
  C      328.350     -19.039     313.345
  N      327.154     -18.813     313.975
  O      331.891     -16.508     314.126
  O      331.098     -14.597     312.611
  H      326.496     -17.458     317.722
  H      332.252     -16.750     313.245
  H      325.653     -23.517     314.570
  H      329.019     -18.234     313.064
  H      325.538     -17.556     314.302
  H      328.080     -17.383     316.056
  H      323.598     -22.880     315.492
  H      327.315     -15.168     316.654
  H      323.277     -21.194     315.746
  H      326.416     -14.594     314.009
  H      328.650     -14.183     313.313
  H      328.614     -13.775     315.033
  P      324.892     -14.760     317.370
  C      322.924     -16.313     318.069
  O      323.322     -15.075     317.517
  O      324.932     -13.210     316.984
  O      325.739     -15.079     318.556
  H      325.088     -12.667     317.780
  H      323.750     -16.864     318.513
  H      322.486     -16.924     317.269
  H      322.165     -16.127     318.830
  H      333.124     -12.656     315.376
  H      332.221     -12.573     313.882
  H      333.507     -13.743     314.062

 3  4  5  6  7  8  9  10  11  12  23  26  30  31  33  0
 6-311+G(2d,p)
 ****
 35  36  37  38 0
 6-311+G(2d,p)
 ****
 1  2  13  14  15  16  17  18  19  20  21  22  24  25  27  28  29 0
 3-21G
 ****
 32  34  39  40  41  42  43  44  45  46  47  48  49 0
 3-21G
 ****


