%nproc=1
%NoSave
%Mem=1900MB
#P OB98/GEN NMR

erre ene a

0 1
  C     -617.440    -786.479    1520.551
  O     -616.842    -785.638    1519.587
  H     -616.659    -787.043    1521.063
  H     -618.136    -787.176    1520.088
  H     -617.963    -785.869    1521.301
  P     -617.783    -784.742    1518.646
  C     -617.367    -785.720    1516.281
  O     -617.066    -784.681    1517.204
  C     -616.743    -785.409    1514.931
  O     -617.547    -784.395    1514.289
  C     -615.310    -784.868    1515.016
  O     -614.359    -785.601    1514.246
  C     -615.465    -783.388    1514.762
  O     -614.312    -782.747    1514.249
  C     -616.687    -783.339    1513.848
  N     -617.401    -782.048    1513.891
  C     -617.297    -781.211    1512.778
  O     -616.676    -781.483    1511.749
  N     -617.973    -779.997    1512.839
  C     -618.696    -779.594    1513.916
  O     -619.279    -778.495    1513.932
  C     -618.756    -780.481    1515.076
  C     -618.107    -781.655    1515.016
  O     -618.162    -783.420    1519.226
  O     -619.066    -785.648    1518.385
  H     -613.574    -782.908    1514.885
  H     -619.812    -785.340    1518.922
  H     -617.909    -779.439    1512.035
  H     -619.318    -780.149    1515.942
  H     -618.132    -782.342    1515.840
  H     -616.402    -783.511    1512.806
  H     -615.697    -782.872    1515.713
  H     -614.916    -785.016    1516.066
  H     -616.774    -786.300    1514.300
  H     -618.449    -785.794    1516.203
  H     -616.972    -786.675    1516.676
  P     -613.566    -786.896    1514.718
  C     -611.032    -786.125    1514.637
  O     -612.104    -786.880    1514.075
  O     -614.313    -788.177    1514.644
  O     -613.245    -786.602    1516.283
  H     -613.251    -787.474    1516.722
  H     -610.151    -786.262    1514.046
  H     -610.846    -786.459    1515.636
  H     -611.295    -785.088    1514.650

 6  7  8  9  10  11  12  13  14  15  16  26  31  32  33  34  35 0
 6-311+G(2d,p)
 ****
 36  37 0
 6-311+G(2d,p)
 ****
 1  2  3  4  5  17  18  19  20  21  22  23  24  25 0
 3-21G
 ****
 27  28  29  30  38  39  40  41  42  43  44  45 0
 3-21G
 ****


