%nproc=1
%NoSave
%Mem=1900MB
#P OB98/GEN NMR

erre ene a

0 1
  C     1160.985     263.179     443.679
  O     1162.091     264.019     444.020
  P     1162.992     263.554     445.268
  C     1161.318     264.245     447.143
  O     1162.582     264.464     446.524
  C     1161.219     265.015     448.456
  O     1162.042     264.420     449.473
  C     1161.655     266.464     448.373
  O     1160.646     267.294     447.798
  C     1161.880     266.800     449.837
  O     1160.618     267.143     450.456
  C     1162.407     265.478     450.406
  N     1166.217     263.840     453.324
  C     1164.855     263.668     453.467
  N     1164.439     262.931     454.516
  N     1163.959     264.174     452.645
  C     1164.504     264.862     451.628
  C     1165.851     265.118     451.370
  C     1166.814     264.575     452.309
  O     1168.031     264.721     452.250
  N     1166.026     265.837     450.221
  C     1164.802     266.016     449.751
  N     1163.846     265.451     450.577
  O     1164.450     264.101     444.882
  O     1162.986     262.080     445.508
  H     1160.837     267.528     451.330
  H     1165.137     263.553     445.306
  H     1166.844     263.445     453.982
  H     1164.551     266.535     448.846
  H     1161.946     265.219     451.372
  H     1162.550     267.654     449.986
  H     1165.062     262.458     455.138
  H     1162.615     266.546     447.817
  H     1163.448     262.763     454.621
  H     1160.172     264.967     448.793
  H     1161.184     263.168     447.338
  H     1160.526     264.540     446.451
  P     1160.659     267.467     446.214
  C     1161.529     269.910     446.266
  O     1160.467     269.040     445.947
  O     1159.262     266.839     445.766
  O     1161.817     266.822     445.518
  H     1159.316     266.476     444.855
  H     1162.485     269.504     445.938
  H     1161.553     270.091     447.353
  H     1161.360     270.867     445.756
  H     1160.468     263.593     442.839
  H     1160.317     263.114     444.512
  H     1161.343     262.201     443.431

 3  4  5  6  7  8  9  10  11  12  23  26  30  31  33  0
 6-311+G(2d,p)
 ****
 35  36  37  38 0
 6-311+G(2d,p)
 ****
 1  2  13  14  15  16  17  18  19  20  21  22  24  25  27  28  29 0
 3-21G
 ****
 32  34  39  40  41  42  43  44  45  46  47  48  49 0
 3-21G
 ****


