%nproc=1
%NoSave
%Mem=1900MB
#P OB98/GEN NMR

erre ene a

0 1
  C      855.718     217.706    -341.002
  O      856.532     218.735    -340.460
  P      858.119     218.649    -340.706
  C      858.249     221.240    -340.476
  O      858.754     219.979    -340.070
  C      859.373     222.280    -340.516
  O      859.812     222.541    -339.153
  C      860.613     221.857    -341.314
  O      861.163     223.048    -341.888
  C      861.546     221.329    -340.251
  O      862.910     221.319    -340.661
  C      861.229     222.274    -339.092
  N      864.891     221.711    -335.642
  C      864.940     222.287    -336.901
  N      866.118     222.841    -337.252
  N      863.926     222.313    -337.729
  C      862.809     221.743    -337.220
  C      862.647     221.105    -336.014
  C      863.757     221.116    -335.099
  O      863.733     220.688    -333.941
  N      861.388     220.563    -335.895
  C      860.774     220.940    -337.000
  N      861.579     221.695    -337.809
  O      858.243     218.879    -342.279
  O      858.774     217.383    -340.250
  H      863.463     221.126    -339.876
  H      858.270     218.033    -342.763
  H      865.693     221.738    -335.038
  H      859.750     220.705    -337.261
  H      861.768     223.233    -339.183
  H      861.268     220.297    -339.994
  H      866.926     222.876    -336.659
  H      860.394     221.120    -342.095
  H      866.178     223.288    -338.161
  H      858.959     223.221    -340.912
  H      857.498     221.577    -339.748
  H      857.770     221.150    -341.452
  P      861.614     223.003    -343.431
  C      861.019     225.510    -343.662
  O      861.985     224.494    -343.874
  O      860.238     222.713    -344.198
  O      862.631     221.947    -343.749
  H      860.410     222.189    -344.991
  H      861.536     226.480    -343.629
  H      860.484     225.366    -342.725
  H      860.307     225.511    -344.495
  H      854.693     217.896    -340.759
  H      856.013     216.764    -340.590
  H      855.834     217.682    -342.065

 3  4  5  6  7  8  9  10  11  12  23  26  30  31 0
 6-311+G(2d,p)
 ****
 33  35  36  37  38 0
 6-311+G(2d,p)
 ****
 1  2  13  14  15  16  17  18  19  20  21  22  24  25 0
 3-21G
 ****
 27  28  29  32  34  39  40  41  42  43  44  45  46  47  48  49 0
 3-21G
 ****


