%nproc=1
%NoSave
%Mem=1900MB
#P OB98/GEN NMR

erre ene a

0 1
  C      -35.168    -370.859     497.112
  O      -35.119    -371.387     495.805
  H      -34.200    -370.411     497.345
  H      -35.362    -371.668     497.824
  H      -35.944    -370.095     497.206
  P      -36.493    -371.699     495.046
  C      -37.829    -373.826     494.456
  O      -36.858    -373.241     495.312
  C      -37.919    -375.341     494.640
  O      -36.679    -375.965     494.241
  C      -38.141    -375.734     496.101
  O      -39.486    -375.710     496.539
  C      -37.580    -377.155     496.129
  O      -38.576    -378.107     495.714
  C      -36.445    -377.092     495.106
  N      -31.752    -379.038     495.646
  C      -32.826    -379.543     494.938
  N      -32.642    -380.747     494.352
  N      -33.976    -378.928     494.840
  C      -34.044    -377.783     495.557
  C      -33.048    -377.189     496.306
  C      -31.761    -377.853     496.366
  O      -30.780    -377.449     496.984
  N      -33.486    -376.027     496.892
  C      -34.759    -375.955     496.560
  N      -35.136    -376.984     495.728
  O      -36.076    -371.705     493.498
  O      -37.603    -370.726     495.303
  H      -38.242    -379.003     495.907
  H      -36.845    -371.474     492.947
  H      -30.882    -379.542     495.665
  H      -35.442    -375.171     496.870
  H      -36.424    -377.988     494.469
  H      -37.265    -377.444     497.133
  H      -31.818    -381.310     494.501
  H      -37.527    -375.112     496.760
  H      -33.472    -381.266     494.060
  H      -38.706    -375.740     493.990
  H      -37.529    -373.592     493.432
  H      -38.808    -373.362     494.620
  P      -39.824    -375.453     498.082
  C      -41.092    -376.805     499.909
  O      -40.438    -376.816     498.660
  O      -41.080    -374.468     498.010
  O      -38.708    -374.876     498.880
  H      -40.788    -373.541     498.107
  H      -41.438    -377.791     500.139
  H      -41.926    -376.135     499.869
  H      -40.409    -376.480     500.666

 6  7  8  9  10  11  12  13  14  15  26  29  33  34 0
 6-311+G(2d,p)
 ****
 36  38  39  40  41 0
 6-311+G(2d,p)
 ****
 1  2  3  4  5  16  17  18  19  20  21  22  23  24  25 0
 3-21G
 ****
 27  28  30  31  32  35  37  42  43  44  45  46  47 0
 3-21G
 ****
 48  49 0
 3-21G
 ****


