%nproc=1
%NoSave
%Mem=1900MB
#P OB98/GEN NMR

erre ene a

0 1
  C     -523.602     676.739    -441.407
  O     -522.581     677.314    -442.195
  H     -523.303     675.725    -441.130
  H     -524.537     676.695    -441.968
  H     -523.747     677.327    -440.492
  P     -522.820     678.826    -442.689
  C     -521.172     679.856    -440.954
  O     -521.483     679.630    -442.331
  C     -519.985     678.987    -440.553
  O     -520.354     677.593    -440.587
  C     -518.778     679.118    -441.486
  O     -518.033     680.300    -441.239
  C     -518.028     677.835    -441.157
  O     -517.211     677.983    -439.984
  C     -519.154     676.840    -440.896
  N     -517.661     672.531    -443.197
  C     -517.292     673.111    -442.033
  N     -517.750     674.251    -441.478
  C     -518.704     674.803    -442.258
  C     -519.191     674.323    -443.462
  C     -518.622     673.132    -443.939
  N     -518.980     672.550    -445.141
  N     -520.147     675.184    -443.974
  C     -520.241     676.158    -443.089
  N     -519.399     675.961    -442.027
  O     -523.896     679.381    -441.642
  O     -523.290     678.963    -444.103
  H     -516.451     678.536    -440.263
  H     -524.786     679.355    -442.048
  H     -516.523     672.577    -441.465
  H     -520.892     677.021    -443.167
  H     -518.953     676.197    -440.024
  H     -517.376     677.548    -441.983
  H     -519.113     679.079    -442.529
  H     -519.702     679.237    -439.513
  H     -522.043     679.586    -440.338
  H     -520.944     680.916    -440.811
  H     -518.484     671.741    -445.445
  H     -519.616     673.060    -445.746
  P     -517.219     680.918    -442.468
  C     -518.937     682.882    -442.412
  O     -517.582     682.474    -442.549
  O     -517.930     680.302    -443.761
  O     -515.746     680.631    -442.445
  H     -517.266     680.132    -444.461
  H     -518.998     683.947    -442.491
  H     -519.308     682.573    -441.457
  H     -519.525     682.433    -443.185

 6  7  8  9  10  11  12  13  14  15  25  28  32  33  34  35 0
 6-311+G(2d,p)
 ****
 36  37  40 0
 6-311+G(2d,p)
 ****
 1  2  3  4  5  16  17  18  19  20  21  22  23  24 0
 3-21G
 ****
 26  27  29  30  31  38  39 41  42  43  44  45  46  47  48 0
 3-21G
 ****


