%nproc=1
%NoSave
%Mem=1900MB
#P OB98/GEN NMR

erre ene a

0 1
  C     -439.103      14.352    -355.337
  O     -438.413      14.189    -356.559
  H     -439.135      13.386    -354.824
  H     -440.127      14.681    -355.523
  H     -438.591      15.073    -354.694
  P     -438.079      15.489    -357.434
  C     -435.934      14.746    -358.655
  O     -437.334      14.980    -358.759
  C     -435.443      13.984    -359.883
  O     -435.913      12.617    -359.836
  C     -435.955      14.545    -361.201
  O     -435.277      15.733    -361.561
  C     -435.722      13.363    -362.127
  O     -434.364      13.317    -362.571
  C     -436.037      12.162    -361.204
  N     -437.365      11.609    -361.458
  C     -437.418      10.487    -362.277
  O     -436.425       9.958    -362.768
  N     -438.675      10.021    -362.569
  C     -439.847      10.641    -362.243
  O     -440.930      10.329    -362.733
  C     -439.733      11.782    -361.329
  C     -438.516      12.221    -360.992
  O     -437.392      16.599    -356.707
  O     -439.511      15.949    -357.986
  H     -439.828      16.709    -357.461
  H     -433.823      13.168    -361.769
  H     -438.722       9.231    -363.200
  H     -440.643      12.258    -360.992
  H     -438.403      13.082    -360.344
  H     -435.294      11.367    -361.344
  H     -436.362      13.411    -363.010
  H     -437.036      14.732    -361.128
  H     -434.346      13.968    -359.865
  H     -435.742      14.148    -357.755
  H     -435.417      15.707    -358.560
  P     -435.994      17.156    -361.395
  C     -433.980      18.543    -360.608
  O     -434.908      18.304    -361.659
  O     -436.786      17.326    -360.139
  O     -436.944      17.265    -362.677
  H     -437.845      17.514    -362.386
  H     -433.309      19.325    -360.896
  H     -433.424      17.650    -360.413
  H     -434.509      18.834    -359.725

 6  7  8  9  10  11  12  13  14  15  16  27  31  32  33  34  35 0
 6-311+G(2d,p)
 ****
 36  37 0
 6-311+G(2d,p)
 ****
 1  2  3  4  5  17  18  19  20  21  22  23  24  25 0
 3-21G
 ****
 26  28  29  30  38  39  40  41  42  43  44  45 0
 3-21G
 ****


