%nproc=1
%NoSave
%Mem=1900MB
#P OB98/GEN NMR

erre ene a

0 1
  C     -132.807     329.705    -579.377
  O     -132.809     331.033    -578.891
  H     -133.808     329.465    -579.744
  H     -132.550     329.008    -578.573
  H     -132.093     329.603    -580.198
  P     -131.416     331.590    -578.315
  C     -130.717     331.703    -580.820
  O     -130.336     331.394    -579.486
  C     -129.530     332.285    -581.574
  O     -129.205     333.597    -581.048
  C     -128.250     331.469    -581.435
  O     -128.242     330.330    -582.277
  C     -127.199     332.503    -581.811
  O     -127.047     332.610    -583.232
  C     -127.786     333.797    -581.238
  N     -123.999     336.502    -579.134
  C     -124.429     336.387    -580.411
  N     -125.454     335.655    -580.892
  C     -126.084     335.012    -579.891
  C     -125.766     335.036    -578.544
  C     -124.669     335.829    -578.168
  N     -124.216     335.929    -576.870
  N     -126.620     334.218    -577.828
  C     -127.443     333.719    -578.726
  N     -127.160     334.174    -579.983
  O     -131.008     330.489    -577.228
  O     -131.478     332.960    -577.728
  H     -126.259     333.169    -583.383
  H     -131.240     330.811    -576.336
  H     -123.863     336.956    -581.149
  H     -128.248     333.023    -578.516
  H     -127.668     334.647    -581.926
  H     -126.225     332.238    -581.390
  H     -128.102     331.177    -580.389
  H     -129.805     332.404    -582.629
  H     -131.531     332.437    -580.802
  H     -131.077     330.791    -581.306
  H     -123.384     336.458    -576.686
  H     -124.638     335.341    -576.160
  P     -127.221     329.148    -581.925
  C     -128.969     327.676    -580.657
  O     -127.765     328.428    -580.594
  O     -125.907     329.911    -581.433
  O     -126.933     328.212    -583.052
  H     -125.108     329.417    -581.711
  H     -129.185     327.268    -579.692
  H     -128.856     326.881    -581.364
  H     -129.772     328.313    -580.963

 6  7  8  9  10  11  12  13  14  15  25  28  32  33  34  35 0
 6-311+G(2d,p)
 ****
 36  37  40 0
 6-311+G(2d,p)
 ****
 1  2  3  4  5  16  17  18  19  20  21  22  23  24 0
 3-21G
 ****
 26  27  29  30  31  38  39 41  42  43  44  45  46  47  48 0
 3-21G
 ****


