%nproc=1
%NoSave
%Mem=1900MB
#P OB98/GEN NMR

erre ene a

0 1
  C     -244.376     -88.487    -367.964
  O     -245.766     -88.738    -368.181
  P     -246.163     -89.651    -369.444
  C     -248.239     -90.750    -368.289
  O     -247.745     -89.909    -369.320
  C     -248.555     -89.936    -367.028
  O     -249.379     -88.782    -367.378
  C     -249.295     -90.721    -365.941
  O     -248.788     -90.260    -364.676
  C     -250.736     -90.279    -366.114
  O     -251.509     -90.480    -364.941
  C     -250.536     -88.813    -366.517
  N     -251.712     -88.243    -367.176
  C     -252.817     -87.986    -366.373
  O     -252.865     -88.293    -365.181
  N     -253.891     -87.410    -367.002
  C     -253.984     -87.142    -368.336
  O     -254.971     -86.622    -368.849
  C     -252.828     -87.537    -369.155
  C     -251.760     -88.063    -368.545
  O     -245.501     -91.048    -369.045
  O     -245.707     -89.075    -370.744
  H     -245.548     -91.244    -368.092
  H     -251.210     -89.850    -364.251
  H     -254.691     -87.188    -366.432
  H     -252.890     -87.397    -370.227
  H     -250.902     -88.388    -369.117
  H     -250.302     -88.204    -365.638
  H     -251.203     -90.844    -366.936
  H     -249.154     -91.799    -366.020
  H     -247.612     -89.547    -366.627
  H     -247.490     -91.507    -368.038
  H     -249.125     -91.280    -368.653
  P     -247.533     -91.036    -364.026
  C     -246.552     -89.250    -362.394
  O     -247.306     -90.427    -362.565
  O     -246.337     -90.395    -364.881
  O     -247.592     -92.525    -364.139
  H     -246.389     -89.430    -364.941
  H     -246.715     -88.875    -361.373
  H     -246.860     -88.472    -363.098
  H     -245.488     -89.464    -362.519
  H     -244.256     -87.871    -367.097
  H     -243.967     -87.987    -368.817
  H     -243.865     -89.415    -367.816

 3  4  5  6  7  8  9  10  11  12  13  24  28  29  30  31  32 0
 6-311+G(2d,p)
 ****
 33  34 0
 6-311+G(2d,p)
 ****
 1  2  14  15  16  17  18  19  20  21  22  23  25  26  27 0
 3-21G
 ****
 35  36  37  38  39  40  41  42  43  44  45 0
 3-21G
 ****


