%nproc=1
%NoSave
%Mem=1900MB
#P OB98/GEN NMR

erre ene a

0 1
  C       52.353    -105.155    -117.068
  O       51.136    -104.954    -116.369
  P       50.201    -103.685    -116.682
  C       47.795    -103.122    -115.924
  O       48.725    -104.144    -116.257
  C       46.412    -103.729    -115.707
  O       45.905    -104.234    -116.959
  C       46.383    -104.907    -114.742
  O       46.472    -104.467    -113.394
  C       45.065    -105.567    -115.131
  O       43.962    -104.868    -114.535
  C       45.048    -105.362    -116.662
  N       45.468    -106.551    -117.395
  C       44.460    -107.452    -117.751
  O       43.284    -107.237    -117.460
  N       44.804    -108.575    -118.466
  C       46.044    -108.789    -118.780
  N       46.318    -109.881    -119.544
  C       47.144    -107.894    -118.375
  C       46.787    -106.804    -117.699
  O       50.313    -103.152    -118.070
  O       50.572    -102.624    -115.550
  H       43.174    -105.438    -114.646
  H       51.326    -102.032    -115.795
  H       48.165    -108.123    -118.648
  H       47.534    -106.086    -117.385
  H       44.044    -105.077    -116.994
  H       44.997    -106.617    -114.832
  H       47.213    -105.594    -114.950
  H       45.738    -102.934    -115.360
  H       45.519    -110.365    -119.942
  H       47.748    -102.408    -116.753
  H       47.184    -109.961    -120.059
  H       48.141    -102.598    -115.028
  P       46.775    -105.571    -112.273
  C       48.476    -105.763    -110.324
  O       48.055    -105.035    -111.464
  O       47.327    -106.813    -113.118
  O       45.597    -105.936    -111.435
  H       46.630    -107.485    -113.230
  H       49.473    -105.415    -110.042
  H       48.527    -106.833    -110.544
  H       47.791    -105.582    -109.493
  H       52.823    -106.049    -116.715
  H       53.002    -104.321    -116.901
  H       52.152    -105.247    -118.115

 3  4  5  6  7  8  9  10  11  12  13  23  27  28  29  30  32 0
 6-311+G(2d,p)
 ****
 34  35 0
 6-311+G(2d,p)
 ****
 1  2  14  15  16  17  18  19  20  21  22  24  25  26 0
 3-21G
 ****
 31  33  36  37  38  39  40  41  42  43  44  45  46 0
 3-21G
 ****


