%nproc=1
%NoSave
%Mem=1900MB
#P OB98/GEN NMR

erre ene a

0 1
  C      -16.781     137.744     102.742
  O      -16.891     138.259     104.051
  H      -16.528     138.562     102.064
  H      -17.738     137.313     102.434
  H      -15.999     136.983     102.680
  P      -16.898     137.239     105.283
  C      -19.408     137.554     105.792
  O      -18.386     136.650     105.403
  C      -20.466     136.855     106.655
  O      -21.144     135.846     105.868
  C      -19.802     136.130     107.829
  O      -20.665     136.035     108.959
  C      -19.557     134.737     107.271
  O      -19.406     133.748     108.285
  C      -20.795     134.553     106.395
  N      -20.834     129.683     104.896
  C      -20.974     130.207     106.166
  N      -21.122     129.316     107.171
  N      -20.954     131.488     106.427
  C      -20.724     132.258     105.335
  C      -20.545     131.854     104.032
  C      -20.610     130.436     103.751
  O      -20.474     129.913     102.647
  N      -20.316     132.923     103.202
  C      -20.349     133.970     104.000
  N      -20.607     133.619     105.303
  O      -16.799     138.193     106.568
  O      -15.809     136.210     105.281
  H      -20.291     133.570     108.655
  H      -16.414     137.711     107.320
  H      -20.873     128.689     104.748
  H      -20.199     134.996     103.689
  H      -21.643     134.193     106.994
  H      -18.627     134.757     106.696
  H      -20.967     128.328     107.042
  H      -18.871     136.609     108.134
  H      -20.930     129.659     108.116
  H      -21.227     137.573     106.977
  H      -19.869     137.937     104.875
  H      -18.979     138.405     106.325
  P      -20.714     137.284     109.962
  C      -19.634     135.930     111.932
  O      -19.586     137.058     111.079
  O      -22.091     137.082     110.746
  O      -20.645     138.607     109.277
  H      -22.757     137.719     110.426
  H      -18.802     135.955     112.604
  H      -19.591     135.037     111.345
  H      -20.545     135.945     112.492

 6  7  8  9  10  11  12  13  14  15  26  29  33  34 0
 6-311+G(2d,p)
 ****
 36  38  39  40  41 0
 6-311+G(2d,p)
 ****
 1  2  3  4  5  16  17  18  19  20  21  22  23  24  25 0
 3-21G
 ****
 27  28  30  31  32  35  37  42  43  44  45  46  47 0
 3-21G
 ****
 48  49 0
 3-21G
 ****


