%nproc=1
%NoSave
%Mem=1900MB
#P OB98/GEN NMR

erre ene a

0 1
  C     -130.268      16.782     115.664
  O     -129.261      16.504     114.693
  P     -129.533      15.967     113.215
  C     -129.362      13.436     113.919
  O     -130.113      14.477     113.310
  C     -129.873      12.053     113.479
  O     -131.188      11.832     114.074
  C     -130.043      11.949     111.957
  O     -129.596      10.703     111.418
  C     -131.507      12.306     111.750
  O     -132.028      11.864     110.506
  C     -132.157      11.718     113.003
  N     -135.984      12.127     116.363
  C     -134.961      11.201     116.312
  N     -134.959      10.245     117.268
  N     -134.029      11.198     115.393
  C     -134.193      12.157     114.455
  C     -135.176      13.126     114.388
  C     -136.173      13.150     115.435
  O     -137.090      13.958     115.542
  N     -135.009      13.930     113.289
  C     -133.944      13.447     112.682
  N     -133.405      12.368     113.359
  O     -128.438      16.201     112.224
  O     -130.815      16.821     112.729
  H     -131.437      12.187     109.803
  H     -130.719      16.937     111.763
  H     -136.662      12.096     117.109
  H     -133.510      13.840     111.768
  H     -132.397      10.659     112.884
  H     -131.583      13.405     111.758
  H     -135.707      10.115     117.929
  H     -129.416      12.684     111.443
  H     -134.343       9.446     117.097
  H     -129.192      11.285     113.866
  H     -129.496      13.557     115.001
  H     -128.297      13.550     113.705
  P     -128.325      10.413     110.499
  C     -129.375      10.078     108.182
  O     -128.629      10.948     109.018
  O     -128.301       8.822     110.309
  O     -127.019      10.882     111.068
  H     -127.474       8.456     110.687
  H     -129.286      10.431     107.151
  H     -130.431      10.108     108.475
  H     -128.997       9.055     108.244
  H     -129.808      17.128     116.566
  H     -130.824      15.890     115.867
  H     -130.928      17.536     115.288

 3  4  5  6  7  8  9  10  11  12  23  26  30  31 0
 6-311+G(2d,p)
 ****
 33  35  36  37  38 0
 6-311+G(2d,p)
 ****
 1  2  13  14  15  16  17  18  19  20  21  22  24  25 0
 3-21G
 ****
 27  28  29  32  34  39  40  41  42  43  44  45  46  47  48  49 0
 3-21G
 ****


