%nproc=1
%NoSave
%Mem=1900MB
#P OB98/GEN NMR

erre ene a

0 1
  C     -335.115    -686.003    -185.400
  O     -335.067    -684.936    -186.348
  P     -336.426    -684.594    -187.146
  C     -336.536    -682.088    -186.425
  O     -337.117    -683.380    -186.360
  C     -337.395    -681.088    -185.627
  O     -337.580    -681.553    -184.273
  C     -336.790    -679.681    -185.534
  O     -337.051    -678.936    -186.706
  C     -337.476    -679.141    -184.294
  O     -338.814    -678.665    -184.598
  C     -337.561    -680.396    -183.399
  N     -336.218    -679.906    -178.522
  C     -337.395    -679.546    -179.181
  N     -338.359    -679.010    -178.407
  N     -337.600    -679.680    -180.458
  C     -336.538    -680.206    -181.109
  C     -335.321    -680.615    -180.589
  C     -335.123    -680.501    -179.161
  O     -334.145    -680.911    -178.526
  N     -334.484    -681.096    -181.556
  C     -335.199    -681.034    -182.675
  N     -336.466    -680.513    -182.440
  O     -337.364    -685.839    -186.814
  O     -336.263    -684.365    -188.607
  H     -339.296    -679.369    -185.070
  H     -337.344    -686.493    -187.560
  H     -336.119    -679.794    -177.539
  H     -334.870    -681.328    -183.654
  H     -338.489    -680.424    -182.798
  H     -336.947    -678.304    -183.847
  H     -338.270    -678.837    -177.416
  H     -335.704    -679.762    -185.341
  H     -339.229    -678.731    -178.848
  H     -338.383    -681.045    -186.113
  H     -336.484    -681.767    -187.468
  H     -335.512    -682.116    -186.007
  P     -335.797    -678.358    -187.523
  C     -336.340    -679.424    -189.842
  O     -335.474    -679.387    -188.704
  O     -334.567    -678.567    -186.490
  O     -335.926    -676.933    -187.922
  H     -333.949    -677.815    -186.577
  H     -335.782    -679.716    -190.706
  H     -336.791    -678.439    -190.002
  H     -337.137    -680.160    -189.651
  H     -334.153    -686.121    -184.947
  H     -335.389    -686.910    -185.897
  H     -335.839    -685.777    -184.645

 3  4  5  6  7  8  9  10  11  12  23  26  30  31 0
 6-311+G(2d,p)
 ****
 33  35  36  37  38 0
 6-311+G(2d,p)
 ****
 1  2  13  14  15  16  17  18  19  20  21  22  24  25 0
 3-21G
 ****
 27  28  29  32  34  39  40  41  42  43  44  45  46  47  48  49 0
 3-21G
 ****


