%nproc=1
%NoSave
%Mem=1900MB
#P OB98/GEN NMR

erre ene a

0 1
  C       -1.082     163.371      30.599
  O       -1.086     164.304      31.661
  H       -0.133     162.828      30.615
  H       -1.172     163.895      29.644
  H       -1.902     162.657      30.714
  P       -2.467     165.081      31.932
  C       -2.181     165.110      34.540
  O       -2.263     165.840      33.329
  C       -0.812     164.442      34.670
  O        0.208     165.470      34.680
  C       -0.649     163.611      35.942
  O        0.132     162.456      35.635
  C        0.126     164.529      36.871
  O        0.838     163.800      37.869
  C        0.997     165.308      35.876
  N        1.429     166.599      36.408
  C        2.688     167.056      36.007
  O        3.385     166.371      35.258
  N        3.146     168.253      36.495
  C        2.440     168.906      37.365
  N        2.959     170.075      37.828
  C        1.131     168.436      37.858
  C        0.686     167.294      37.336
  O       -3.453     163.874      32.292
  O       -2.920     165.936      30.796
  H        0.187     163.482      38.534
  H       -3.050     163.199      32.863
  H        0.587     169.008      38.595
  H       -0.270     166.880      37.635
  H        1.891     164.729      35.610
  H       -0.564     165.211      37.383
  H       -1.597     163.304      36.384
  H       -0.637     163.835      33.775
  H        3.868     170.352      37.480
  H       -2.963     164.347      34.576
  H        2.522     170.636      38.543
  H       -2.344     165.807      35.368
  P       -0.602     161.049      35.414
  C        1.065     160.214      33.633
  O        0.474     159.975      34.901
  O       -1.872     161.095      34.633
  O       -0.883     160.556      36.918
  H       -1.760     160.125      36.933
  H        1.759     159.431      33.410
  H        1.579     161.152      33.650
  H        0.302     160.239      32.883

 6  7  8  9  10  11  12  13  14  15  16  26  30  31  32  33  35 0
 6-311+G(2d,p)
 ****
 37  38 0
 6-311+G(2d,p)
 ****
 1  2  3  4  5  17  18  19  20  21  22  23  24  25 0
 3-21G
 ****
 27  28  29  34  36  39  40  41  42  43  44  45  46 0
 3-21G
 ****


