%nproc=1
%NoSave
%Mem=1900MB
#P OB98/GEN NMR

erre ene a

0 1
  C      -39.111     292.076    -100.421
  O      -38.967     291.164     -99.353
  H      -38.137     292.211    -100.899
  H      -39.455     293.046    -100.052
  H      -39.814     291.690    -101.165
  P      -40.262     290.794     -98.480
  C      -39.758     292.750     -96.852
  O      -40.674     292.184     -97.779
  C      -40.229     294.138     -96.427
  O      -40.310     295.034     -97.553
  C      -41.618     294.181     -95.803
  O      -41.674     293.661     -94.483
  C      -41.882     295.675     -95.846
  O      -41.134     296.329     -94.802
  C      -41.326     296.032     -97.247
  N      -42.364     296.045     -98.277
  C      -43.130     297.211     -98.381
  O      -42.935     298.160     -97.625
  N      -44.135     297.264     -99.317
  C      -44.367     296.231    -100.073
  N      -45.376     296.337    -100.979
  C      -43.595     294.978     -99.985
  C      -42.618     294.951     -99.075
  O      -40.119     289.628     -97.556
  O      -41.434     290.619     -99.556
  H      -41.175     297.281     -94.980
  H      -42.258     290.376     -99.068
  H      -43.849     294.133    -100.614
  H      -42.014     294.062     -98.951
  H      -40.826     297.009     -97.231
  H      -42.929     295.938     -95.699
  H      -42.353     293.683     -96.451
  H      -39.469     294.547     -95.744
  H      -45.884     297.209    -101.019
  H      -38.775     292.800     -97.329
  H      -45.677     295.558    -101.555
  H      -39.689     292.122     -95.961
  P      -43.086     293.056     -93.999
  C      -43.608     295.095     -92.447
  O      -43.989     294.312     -93.572
  O      -42.716     292.350     -92.615
  O      -43.743     292.128     -94.967
  H      -42.595     291.389     -92.739
  H      -44.316     295.885     -92.306
  H      -42.637     295.512     -92.615
  H      -43.584     294.477     -91.574

 6  7  8  9  10  11  12  13  14  15  16  26  30  31  32  33  35 0
 6-311+G(2d,p)
 ****
 37  38 0
 6-311+G(2d,p)
 ****
 1  2  3  4  5  17  18  19  20  21  22  23  24  25 0
 3-21G
 ****
 27  28  29  34  36  39  40  41  42  43  44  45  46 0
 3-21G
 ****


