%nproc=1
%NoSave
%Mem=1900MB
#P OB98/GEN NMR

erre ene a

0 1
  C     1231.805    -315.275    -241.226
  O     1230.724    -314.424    -240.896
  H     1232.549    -315.230    -240.413
  H     1232.283    -314.946    -242.146
  H     1231.461    -316.307    -241.324
  P     1229.536    -314.320    -241.974
  C     1231.013    -312.535    -243.145
  O     1229.734    -312.872    -242.628
  C     1230.961    -311.245    -243.948
  O     1230.067    -311.397    -245.073
  C     1230.461    -310.040    -243.168
  O     1231.524    -309.463    -242.414
  C     1230.019    -309.119    -244.297
  O     1231.166    -308.447    -244.855
  C     1229.447    -310.118    -245.319
  N     1224.886    -307.890    -246.195
  C     1226.146    -307.381    -246.157
  N     1227.291    -308.015    -245.860
  C     1227.070    -309.320    -245.604
  C     1225.849    -309.982    -245.573
  C     1224.720    -309.198    -245.907
  N     1223.451    -309.719    -245.947
  N     1226.015    -311.315    -245.260
  C     1227.313    -311.463    -245.136
  N     1227.985    -310.278    -245.287
  O     1228.173    -314.643    -241.462
  O     1230.089    -315.299    -243.121
  H     1231.430    -307.763    -244.190
  H     1231.054    -315.172    -243.246
  H     1226.226    -306.330    -246.392
  H     1227.810    -312.410    -244.950
  H     1229.703    -309.820    -246.345
  H     1229.324    -308.345    -243.958
  H     1229.608    -310.281    -242.530
  H     1231.969    -311.062    -244.361
  H     1231.391    -313.363    -243.766
  H     1222.672    -309.063    -245.991
  H     1223.289    -310.666    -245.601
  H     1231.702    -312.431    -242.286
  P     1231.389    -309.156    -240.833
  C     1229.200    -307.801    -241.026
  O     1230.606    -307.771    -240.760
  O     1232.662    -309.270    -240.074
  O     1230.287    -310.221    -240.355
  H     1230.322    -310.302    -239.364
  H     1228.800    -306.812    -240.944
  H     1228.717    -308.441    -240.318
  H     1229.032    -308.173    -242.015

 6  7  8  9  10  11  12  13  14  15  25  28  32  33  34  35 0
 6-311+G(2d,p)
 ****
 36  39  40 0
 6-311+G(2d,p)
 ****
 1  2  3  4  5  16  17  18  19  20  21  22  23  24 0
 3-21G
 ****
 26  27  29  30  31  37  38  41  42  43  44  45  46  47 0
 3-21G
 ****
 48 0
 3-21G
 ****


