%nproc=1
%NoSave
%Mem=1900MB
#P OB98/GEN NMR

erre ene a

0 1
  C      149.767     111.070       3.153
  O      150.259     111.908       4.207
  P      149.432     111.957       5.579
  C      147.579     113.705       5.044
  O      147.910     112.338       5.247
  C      146.062     113.905       5.107
  O      145.510     113.424       6.349
  C      145.632     115.360       5.011
  O      145.597     115.807       3.664
  C      144.224     115.290       5.579
  O      143.313     114.808       4.571
  C      144.376     114.250       6.696
  N      142.169     116.548      10.707
  C      141.671     116.122       9.525
  N      142.324     115.536       8.500
  C      143.626     115.389       8.790
  C      144.277     115.774       9.950
  C      143.492     116.382      10.943
  N      144.005     116.813      12.144
  N      145.621     115.470       9.883
  C      145.775     114.896       8.707
  N      144.601     114.831       8.007
  O      149.992     113.276       6.292
  O      149.614     110.751       6.439
  H      142.416     114.858       4.950
  H      150.010     113.147       7.259
  H      140.604     116.271       9.384
  H      146.710     114.511       8.323
  H      143.501     113.595       6.777
  H      143.851     116.266       5.903
  H      146.263     115.999       5.644
  H      145.612     113.333       4.284
  H      147.963     114.045       4.079
  H      143.375     117.214      12.819
  H      144.986     116.670      12.335
  H      148.085     114.309       5.804
  P      146.726     116.853       3.208
  C      144.865     118.664       3.246
  O      146.175     118.296       3.628
  O      146.605     116.837       1.612
  O      148.103     116.514       3.670
  H      147.475     117.026       1.209
  H      144.548     119.515       3.853
  H      144.163     117.841       3.402
  H      144.857     118.959       2.193
  H      150.419     111.141       2.307
  H      148.784     111.388       2.874
  H      149.731     110.056       3.491

 3  4  5  6  7  8  9  10  11  12  22  25  29  30  31  32 0
 6-311+G(2d,p)
 ****
 33  36  37 0
 6-311+G(2d,p)
 ****
 1  2  13  14  15  16  17  18  19  20  21  23  24  26 0
 3-21G
 ****
 27  28  34  35  38  39  40  41  42  43  44  45  46  47  48 0
 3-21G
 ****


