%nproc=1
%NoSave
%Mem=1900MB
#P OB98/GEN NMR

erre ene a

0 1
  C     -193.765     112.351     120.795
  O     -194.448     111.744     119.721
  H     -192.696     112.359     120.569
  H     -193.927     111.770     121.706
  H     -194.099     113.379     120.951
  P     -196.019     111.999     119.565
  C     -196.710     109.843     120.805
  O     -196.768     111.264     120.781
  C     -196.712     109.302     122.234
  O     -195.581     109.836     122.957
  C     -197.965     109.706     123.015
  O     -199.066     108.828     122.854
  C     -197.458     109.690     124.455
  O     -197.591     108.384     125.040
  C     -195.980     110.068     124.315
  N     -193.812     113.296     127.635
  C     -193.990     111.930     127.745
  N     -193.569     111.370     128.900
  N     -194.544     111.198     126.814
  C     -195.003     111.914     125.762
  C     -194.903     113.270     125.552
  C     -194.222     114.062     126.554
  O     -194.025     115.271     126.496
  N     -195.524     113.648     124.385
  C     -196.071     112.534     123.941
  N     -195.716     111.443     124.698
  O     -196.422     111.084     118.310
  O     -196.421     113.423     119.330
  H     -197.083     107.755     124.493
  H     -197.162     111.497     117.829
  H     -193.354     113.800     128.372
  H     -196.692     112.453     123.055
  H     -195.345     109.435     124.947
  H     -198.038     110.375     125.079
  H     -193.216     111.895     129.682
  H     -198.260     110.729     122.770
  H     -193.851     110.407     129.099
  H     -196.589     108.212     122.208
  H     -195.786     109.562     120.299
  H     -197.541     109.419     120.234
  P     -200.565     109.384     122.859
  C     -200.690     109.177     125.473
  O     -200.886     109.955     124.312
  O     -201.444     108.049     122.784
  O     -200.900     110.337     121.760
  H     -201.739     107.882     121.869
  H     -200.965     109.747     126.335
  H     -199.660     108.897     125.545
  H     -201.296     108.297     125.419

 6  7  8  9  10  11  12  13  14  15  26  29  33  34 0
 6-311+G(2d,p)
 ****
 36  38  39  40  41 0
 6-311+G(2d,p)
 ****
 1  2  3  4  5  16  17  18  19  20  21  22  23  24  25 0
 3-21G
 ****
 27  28  30  31  32  35  37  42  43  44  45  46  47 0
 3-21G
 ****
 48  49 0
 3-21G
 ****


