%nproc=1
%NoSave
%Mem=1900MB
#P OB98/GEN NMR

erre ene a

0 1
  C      -60.122     -47.235     -30.697
  O      -61.274     -46.411     -30.916
  P      -62.431     -46.819     -31.951
  C      -62.617     -44.470     -32.989
  O      -63.297     -45.515     -32.297
  C      -63.427     -43.169     -32.988
  O      -63.326     -42.505     -31.714
  C      -62.986     -42.149     -34.032
  O      -63.484     -42.494     -35.310
  C      -63.553     -40.859     -33.446
  O      -64.951     -40.736     -33.759
  C      -63.360     -41.083     -31.941
  N      -61.095     -36.624     -30.872
  C      -62.323     -36.922     -31.349
  N      -62.851     -38.136     -31.613
  C      -61.976     -39.109     -31.307
  C      -60.689     -38.958     -30.816
  C      -60.246     -37.642     -30.597
  N      -58.990     -37.341     -30.125
  N      -60.082     -40.185     -30.649
  C      -60.996     -41.064     -31.015
  N      -62.156     -40.462     -31.421
  O      -63.244     -47.999     -31.526
  O      -61.661     -47.128     -33.320
  H      -65.288     -39.954     -33.288
  H      -62.168     -47.776     -33.844
  H      -62.968     -36.069     -31.548
  H      -60.865     -42.138     -31.001
  H      -64.205     -40.694     -31.362
  H      -63.053     -39.964     -33.828
  H      -61.892     -42.086     -34.056
  H      -64.482     -43.433     -33.134
  H      -62.447     -44.794     -34.022
  H      -58.737     -36.371     -30.026
  H      -58.335     -38.092     -29.962
  H      -61.648     -44.306     -32.507
  P      -62.474     -42.725     -36.531
  C      -63.442     -40.719     -37.805
  O      -63.165     -42.106     -37.840
  O      -61.954     -44.116     -36.684
  O      -61.285     -41.690     -36.240
  H      -60.454     -42.044     -36.607
  H      -64.360     -40.546     -37.238
  H      -63.583     -40.364     -38.829
  H      -62.618     -40.166     -37.347
  H      -59.486     -46.773     -29.971
  H      -59.588     -47.352     -31.616
  H      -60.433     -48.195     -30.340

 3  4  5  6  7  8  9  10  11  12  22  25  29  30  31  32 0
 6-311+G(2d,p)
 ****
 33  36  37 0
 6-311+G(2d,p)
 ****
 1  2  13  14  15  16  17  18  19  20  21  23  24  26 0
 3-21G
 ****
 27  28  34  35  38  39  40  41  42  43  44  45  46  47  48 0
 3-21G
 ****


