%nproc=1
%NoSave
%Mem=1900MB
#P OB98/GEN NMR

erre ene a

0 1
  C      249.841     157.146     516.446
  O      250.220     156.328     517.533
  H      250.278     158.143     516.548
  H      250.210     156.692     515.521
  H      248.751     157.218     516.393
  P      249.862     156.880     518.997
  C      247.625     155.624     519.368
  O      248.261     156.866     519.109
  C      247.255     155.520     520.842
  O      248.439     155.330     521.642
  C      246.572     156.756     521.418
  O      245.199     156.815     521.067
  C      246.764     156.514     522.907
  O      245.770     155.586     523.379
  C      248.156     155.866     522.962
  N      251.997     156.788     526.243
  C      251.120     155.762     526.146
  N      250.121     155.589     525.258
  C      250.075     156.611     524.387
  C      250.898     157.723     524.360
  C      251.896     157.797     525.349
  N      252.773     158.855     525.446
  N      250.564     158.555     523.314
  C      249.553     157.957     522.717
  N      249.216     156.780     523.332
  O      250.213     158.441     518.903
  O      250.589     156.224     520.123
  H      245.854     154.783     522.831
  H      250.569     158.738     519.762
  H      251.242     154.971     526.882
  H      249.043     158.333     521.838
  H      248.178     155.019     523.659
  H      246.673     157.423     523.506
  H      247.102     157.671     521.128
  H      246.619     154.633     520.968
  H      248.307     154.806     519.110
  H      253.580     158.761     526.042
  H      252.695     159.602     524.766
  H      246.732     155.549     518.743
  P      244.423     158.195     521.347
  C      244.218     159.166     518.949
  O      244.908     159.201     520.193
  O      245.149     158.761     522.655
  O      242.950     158.067     521.535
  H      244.543     159.354     523.142
  H      244.647     159.885     518.283
  H      243.186     159.398     519.107
  H      244.302     158.189     518.522

 6  7  8  9  10  11  12  13  14  15  25  28  32  33  34  35 0
 6-311+G(2d,p)
 ****
 36  39  40 0
 6-311+G(2d,p)
 ****
 1  2  3  4  5  16  17  18  19  20  21  22  23  24 0
 3-21G
 ****
 26  27  29  30  31  37  38  41  42  43  44  45  46  47  48 0
 3-21G
 ****


