%nproc=1
%NoSave
%Mem=1900MB
#P OB98/GEN NMR

erre ene a

0 1
  C     -122.016     189.675     248.706
  O     -121.748     188.379     248.207
  H     -122.994     189.670     249.189
  H     -122.027     190.402     247.887
  H     -121.259     189.954     249.444
  P     -120.371     188.183     247.407
  C     -119.442     189.267     245.258
  O     -120.606     188.952     246.012
  C     -119.809     190.153     244.063
  O     -120.707     189.414     243.201
  C     -120.512     191.456     244.460
  O     -120.096     192.496     243.569
  C     -121.980     191.143     244.218
  O     -122.759     192.318     244.013
  C     -121.887     190.220     243.002
  N     -126.655     190.081     241.204
  C     -125.647     190.972     241.042
  N     -124.391     190.913     241.536
  C     -124.209     189.771     242.230
  C     -125.136     188.777     242.486
  C     -126.418     188.967     241.944
  N     -127.459     188.093     242.137
  N     -124.574     187.788     243.274
  C     -123.332     188.176     243.482
  N     -123.069     189.382     242.887
  O     -119.887     186.780     247.283
  O     -119.392     189.180     248.187
  H     -123.613     192.058     243.604
  H     -119.812     190.048     248.342
  H     -125.881     191.842     240.432
  H     -122.588     187.637     244.068
  H     -121.776     190.766     242.060
  H     -122.395     190.613     245.080
  H     -120.320     191.750     245.492
  H     -118.898     190.350     243.482
  H     -118.965     188.345     244.898
  H     -128.349     188.306     241.710
  H     -127.308     187.252     242.679
  H     -118.737     189.789     245.921
  P     -119.428     193.819     244.179
  C     -119.981     196.336     244.338
  O     -120.274     195.101     243.699
  O     -117.948     193.937     244.000
  O     -119.809     193.721     245.739
  H     -119.037     193.988     246.273
  H     -120.606     197.104     243.933
  H     -118.954     196.588     244.173
  H     -120.162     196.246     245.389

 6  7  8  9  10  11  12  13  14  15  25  28  32  33  34  35 0
 6-311+G(2d,p)
 ****
 36  39  40 0
 6-311+G(2d,p)
 ****
 1  2  3  4  5  16  17  18  19  20  21  22  23  24 0
 3-21G
 ****
 26  27  29  30  31  37  38  41  42  43  44  45  46  47 0
 3-21G
 ****
 48 0
 3-21G
 ****


