%nproc=1
%NoSave
%Mem=1900MB
#P OB98/GEN NMR

erre ene a

0 1
  C      -47.539    -194.681     -86.532
  O      -47.327    -195.415     -85.342
  P      -48.328    -195.272     -84.102
  C      -47.425    -193.062     -83.172
  O      -47.558    -194.460     -82.949
  C      -47.337    -192.296     -81.853
  O      -46.986    -190.912     -82.132
  C      -48.634    -192.281     -81.032
  O      -48.250    -192.287     -79.652
  C      -49.241    -190.934     -81.386
  O      -50.187    -190.482     -80.424
  C      -47.981    -190.085     -81.486
  N      -49.664    -185.261     -81.331
  C      -49.645    -186.236     -80.398
  N      -49.205    -187.504     -80.525
  C      -48.742    -187.726     -81.766
  C      -48.723    -186.838     -82.831
  C      -49.198    -185.540     -82.573
  N      -49.192    -184.523     -83.502
  N      -48.225    -187.456     -83.963
  C      -47.950    -188.688     -83.586
  N      -48.185    -188.876     -82.252
  O      -48.967    -196.542     -83.649
  O      -49.426    -194.224     -84.610
  H      -50.661    -189.714     -80.796
  H      -50.261    -194.689     -84.810
  H      -50.032    -185.963     -79.421
  H      -47.583    -189.475     -84.228
  H      -47.594    -189.801     -80.500
  H      -49.753    -191.006     -82.354
  H      -49.307    -193.117     -81.248
  H      -46.516    -192.722     -81.263
  H      -48.304    -192.724     -83.728
  H      -49.429    -183.600     -83.173
  H      -48.616    -184.622     -84.335
  H      -46.535    -192.868     -83.781
  P      -48.481    -193.599     -78.761
  C      -50.516    -192.363     -77.820
  O      -49.379    -193.149     -77.514
  O      -47.248    -194.367     -78.421
  O      -49.499    -194.471     -79.643
  H      -49.488    -195.398     -79.331
  H      -50.211    -191.323     -77.966
  H      -51.220    -192.414     -76.985
  H      -51.014    -192.724     -78.725
  H      -46.768    -194.913     -87.236
  H      -47.519    -193.634     -86.313
  H      -48.491    -194.941     -86.947

 3  4  5  6  7  8  9  10  11  12  22  25  29  30  31  32 0
 6-311+G(2d,p)
 ****
 33  36  37 0
 6-311+G(2d,p)
 ****
 1  2  13  14  15  16  17  18  19  20  21  23  24  26 0
 3-21G
 ****
 27  28  34  35  38  39  40  41  42  43  44  45  46  47  48 0
 3-21G
 ****


