%nproc=1
%NoSave
%Mem=1900MB
#P OB98/GEN NMR

erre ene a

0 1
  C       79.808      16.358      14.425
  O       79.843      15.956      15.779
  P       78.513      15.515      16.559
  C       79.272      13.065      16.726
  O       78.299      13.962      16.213
  C       78.718      12.255      17.899
  O       77.509      11.562      17.484
  C       79.685      11.203      18.462
  O       79.429      11.134      19.868
  C       79.222       9.934      17.774
  O       79.661       8.757      18.439
  C       77.704      10.156      17.750
  N       77.043       9.312      16.762
  C       76.298       8.236      17.251
  O       76.284       7.990      18.459
  N       75.632       7.432      16.361
  C       75.784       7.624      15.089
  N       75.096       6.800      14.255
  C       76.662       8.669      14.529
  C       77.243       9.477      15.412
  O       77.322      16.381      16.322
  O       78.972      15.468      18.090
  H       79.269       8.748      19.339
  H       79.027      16.383      18.462
  H       76.802       8.755      13.462
  H       77.903      10.273      15.096
  H       77.267       9.944      18.734
  H       79.616       9.905      16.751
  H       80.736      11.427      18.269
  H       78.432      12.959      18.690
  H       74.494       6.107      14.681
  H       80.123      13.654      17.078
  H       75.079       6.916      13.253
  H       79.629      12.404      15.931
  P       80.613      10.878      20.917
  C       80.640      13.345      21.594
  O       81.397      12.263      21.085
  O       81.478       9.698      20.619
  O       79.864      10.710      22.326
  H       80.473      10.305      22.970
  H       81.324      14.132      21.925
  H       80.024      13.030      22.440
  H       79.996      13.744      20.805
  H       80.797      16.609      14.102
  H       79.172      17.212      14.323
  H       79.429      15.557      13.825

 3  4  5  6  7  8  9  10  11  12  13  23  27  28  29  30  32 0
 6-311+G(2d,p)
 ****
 34  35 0
 6-311+G(2d,p)
 ****
 1  2  14  15  16  17  18  19  20  21  22  24  25  26 0
 3-21G
 ****
 31  33  36  37  38  39  40  41  42  43  44  45  46 0
 3-21G
 ****


