%nproc=1
%NoSave
%Mem=1900MB
#P OB98/GEN NMR

erre ene a

0 1
  C       94.807    -132.217    -225.073
  O       94.933    -132.899    -226.306
  H       94.168    -132.806    -224.406
  H       94.342    -131.239    -225.233
  H       95.787    -132.089    -224.602
  P       96.016    -132.319    -227.333
  C       94.137    -131.188    -228.779
  O       95.352    -131.040    -228.052
  C       94.193    -130.372    -230.068
  O       94.463    -128.986    -229.784
  C       95.310    -130.774    -231.013
  O       95.066    -132.007    -231.657
  C       95.320    -129.581    -231.961
  O       94.344    -129.723    -233.000
  C       94.955    -128.410    -231.021
  N       96.078    -127.516    -230.810
  C       96.364    -126.650    -231.872
  O       95.668    -126.667    -232.894
  N       97.447    -125.817    -231.772
  C       98.198    -125.860    -230.714
  N       99.275    -125.036    -230.690
  C       97.932    -126.758    -229.568
  C       96.864    -127.551    -229.679
  O       96.021    -133.425    -228.489
  O       97.357    -132.047    -226.743
  H       94.452    -130.630    -233.358
  H       95.133    -133.668    -228.804
  H       98.580    -126.748    -228.706
  H       96.596    -128.240    -228.891
  H       94.122    -127.825    -231.440
  H       96.293    -129.466    -232.453
  H       96.273    -130.790    -230.478
  H       93.209    -130.439    -230.557
  H       99.454    -124.477    -231.516
  H       93.283    -130.876    -228.167
  H       99.970    -125.039    -229.956
  H       94.012    -132.250    -229.004
  P       96.260    -133.009    -232.025
  C       96.411    -132.026    -234.404
  O       97.108    -132.299    -233.195
  O       95.849    -134.407    -232.327
  O       97.247    -132.870    -230.771
  H       97.591    -131.973    -230.615
  H       97.075    -131.557    -235.100
  H       95.587    -131.374    -234.201
  H       96.047    -132.942    -234.820

 6  7  8  9  10  11  12  13  14  15  16  26  30  31  32  33  35 0
 6-311+G(2d,p)
 ****
 37  38 0
 6-311+G(2d,p)
 ****
 1  2  3  4  5  17  18  19  20  21  22  23  24  25 0
 3-21G
 ****
 27  28  29  34  36  39  40  41  42  43  44  45  46 0
 3-21G
 ****


