%nproc=1
%NoSave
%Mem=1900MB
#P OB98/GEN NMR

erre ene a

0 1
  C     -242.431     428.390     319.708
  O     -242.527     429.205     318.560
  H     -243.427     428.242     320.122
  H     -241.812     428.892     320.459
  H     -241.999     427.415     319.461
  P     -241.267     429.234     317.568
  C     -241.031     431.638     316.616
  O     -240.661     430.725     317.639
  C     -240.274     432.963     316.787
  O     -240.662     433.556     318.059
  C     -238.743     432.812     316.786
  O     -238.167     433.951     316.132
  C     -238.399     432.898     318.269
  O     -237.054     433.308     318.487
  C     -239.444     433.906     318.743
  N     -237.669     435.875     323.004
  C     -237.463     436.243     321.691
  N     -236.604     437.267     321.466
  N     -238.054     435.662     320.679
  C     -238.901     434.673     321.043
  C     -239.185     434.207     322.303
  C     -238.514     434.848     323.414
  O     -238.641     434.546     324.602
  N     -240.055     433.148     322.252
  C     -240.272     432.959     320.961
  N     -239.594     433.863     320.188
  O     -241.954     429.175     316.125
  O     -240.272     428.135     317.759
  H     -236.924     434.178     318.055
  H     -241.986     428.252     315.812
  H     -237.180     436.347     323.751
  H     -240.888     432.177     320.538
  H     -239.185     434.935     318.479
  H     -238.544     431.916     318.743
  H     -236.137     437.784     322.194
  H     -238.380     431.892     316.320
  H     -236.483     437.571     320.514
  H     -240.596     433.652     315.996
  H     -242.108     431.834     316.674
  H     -240.808     431.199     315.640
  P     -238.109     433.942     314.531
  C     -235.581     433.446     314.140
  O     -236.919     432.973     314.069
  O     -237.551     435.405     314.178
  O     -239.430     433.691     313.878
  H     -237.956     435.720     313.349
  H     -234.914     432.682     313.798
  H     -235.345     433.698     315.153
  H     -235.476     434.314     313.523

 6  7  8  9  10  11  12  13  14  15  26  29  33  34 0
 6-311+G(2d,p)
 ****
 36  38  39  40  41 0
 6-311+G(2d,p)
 ****
 1  2  3  4  5  16  17  18  19  20  21  22  23  24  25 0
 3-21G
 ****
 27  28  30  31  32  35  37  42  43  44  45  46  47 0
 3-21G
 ****
 48  49 0
 3-21G
 ****


