%nproc=1
%NoSave
%Mem=1900MB
#P OB98/GEN NMR

erre ene a

0 1
  C      129.380      37.807    -166.184
  O      129.210      36.416    -166.003
  H      130.190      38.147    -165.530
  H      128.467      38.345    -165.918
  H      129.657      38.026    -167.220
  P      128.035      35.675    -166.801
  C      127.726      33.374    -167.933
  O      128.535      34.173    -167.075
  C      128.307      31.959    -168.040
  O      129.700      32.081    -168.419
  C      128.235      31.191    -166.710
  O      127.609      29.914    -166.831
  C      129.675      31.227    -166.208
  O      130.025      30.161    -165.350
  C      130.493      31.302    -167.503
  N      131.818      31.895    -167.331
  C      132.614      31.391    -166.306
  O      132.300      30.472    -165.549
  N      133.843      31.987    -166.166
  C      134.333      33.008    -166.923
  O      135.447      33.496    -166.755
  C      133.440      33.511    -167.977
  C      132.240      32.941    -168.130
  O      127.517      36.391    -168.004
  O      126.887      35.473    -165.701
  H      129.558      30.295    -164.499
  H      126.186      36.139    -165.835
  H      134.433      31.624    -165.434
  H      133.792      34.328    -168.590
  H      131.553      33.287    -168.898
  H      130.627      30.307    -167.928
  H      129.816      32.155    -165.640
  H      127.595      31.716    -165.990
  H      127.791      31.423    -168.845
  H      127.705      33.853    -168.918
  H      126.706      33.327    -167.538
  P      126.041      29.653    -166.691
  C      124.765      27.387    -167.037
  O      125.818      28.095    -166.398
  O      125.187      30.273    -167.746
  O      125.672      30.359    -165.286
  H      124.758      30.699    -165.376
  H      124.776      26.366    -166.717
  H      124.899      27.430    -168.098
  H      123.827      27.832    -166.777

 6  7  8  9  10  11  12  13  14  15  16  26  31  32  33  34  35 0
 6-311+G(2d,p)
 ****
 36  37 0
 6-311+G(2d,p)
 ****
 1  2  3  4  5  17  18  19  20  21  22  23  24  25 0
 3-21G
 ****
 27  28  29  30  38  39  40  41  42  43  44  45 0
 3-21G
 ****


