%nproc=1
%NoSave
%Mem=1900MB
#P OB98/GEN NMR

erre ene a

0 1
  C      135.471      46.943     -79.624
  O      135.082      47.509     -78.390
  H      135.346      45.858     -79.568
  H      136.522      47.166     -79.825
  H      134.846      47.329     -80.434
  P      135.161      49.110     -78.259
  C      132.864      49.828     -79.256
  O      133.633      49.587     -78.082
  C      131.371      49.864     -78.917
  O      130.861      48.507     -78.864
  C      131.068      50.532     -77.572
  O      129.929      51.385     -77.712
  C      130.762      49.369     -76.641
  O      129.910      49.753     -75.563
  C      130.175      48.335     -77.608
  N      130.329      46.968     -77.105
  C      129.360      46.516     -76.204
  O      128.437      47.260     -75.860
  N      129.486      45.259     -75.673
  C      130.524      44.535     -75.967
  N      130.600      43.303     -75.390
  C      131.595      44.989     -76.876
  C      131.434      46.201     -77.406
  O      135.532      49.572     -79.743
  O      136.096      49.618     -77.212
  H      129.764      48.963     -74.995
  H      135.821      50.517     -79.766
  H      132.447      44.357     -77.076
  H      132.172      46.619     -78.083
  H      129.105      48.526     -77.781
  H      131.699      48.993     -76.214
  H      131.904      51.120     -77.193
  H      130.842      50.365     -79.738
  H      129.854      43.029     -74.765
  H      133.058      49.030     -79.977
  H      131.376      42.667     -75.525
  H      133.165      50.787     -79.691
  P      130.242      52.938     -77.980
  C      129.582      53.651     -80.387
  O      129.160      53.472     -79.041
  O      131.611      52.906     -78.810
  O      130.354      53.751     -76.732
  H      132.369      53.088     -78.224
  H      128.761      54.008     -80.974
  H      129.922      52.716     -80.781
  H      130.380      54.363     -80.419

 6  7  8  9  10  11  12  13  14  15  16  26  30  31  32  33  35 0
 6-311+G(2d,p)
 ****
 37  38 0
 6-311+G(2d,p)
 ****
 1  2  3  4  5  17  18  19  20  21  22  23  24  25 0
 3-21G
 ****
 27  28  29  34  36  39  40  41  42  43  44  45  46 0
 3-21G
 ****


