%nproc=1
%NoSave
%Mem=1900MB
#P OB98/GEN NMR

erre ene a

0 1
  C       56.209     241.017     -70.557
  O       56.734     241.992     -69.678
  H       55.191     241.302     -70.832
  H       56.179     240.044     -70.060
  H       56.814     240.951     -71.467
  P       58.295     241.902     -69.328
  C       58.987     244.398     -69.587
  O       58.705     243.325     -68.698
  C       59.626     245.555     -68.819
  O       58.585     246.239     -68.062
  C       60.708     245.122     -67.819
  O       61.733     246.123     -67.801
  C       59.976     245.138     -66.491
  O       60.828     245.285     -65.363
  C       59.032     246.331     -66.695
  N       57.903     246.316     -65.767
  C       58.043     247.025     -64.577
  O       59.011     247.726     -64.287
  N       57.002     246.902     -63.693
  C       55.880     246.146     -63.865
  O       54.992     246.062     -63.023
  C       55.792     245.414     -65.138
  C       56.791     245.531     -66.015
  O       58.990     241.921     -70.768
  O       58.704     240.723     -68.509
  H       59.089     241.013     -71.112
  H       60.258     245.253     -64.562
  H       57.089     247.411     -62.823
  H       54.921     244.796     -65.306
  H       56.771     244.986     -66.954
  H       59.582     247.272     -66.593
  H       59.406     244.208     -66.366
  H       61.149     244.144     -68.035
  H       60.025     246.279     -69.540
  H       58.057     244.742     -70.045
  H       59.661     244.044     -70.376
  P       63.232     245.637     -67.502
  C       64.661     247.134     -69.113
  O       64.166     246.909     -67.800
  O       63.491     244.655     -68.738
  O       63.387     245.015     -66.156
  H       63.061     244.953     -69.557
  H       65.260     248.021     -69.121
  H       63.840     247.252     -69.788
  H       65.256     246.299     -69.418

 6  7  8  9  10  11  12  13  14  15  16  27  31  32  33  34  35 0
 6-311+G(2d,p)
 ****
 36  37 0
 6-311+G(2d,p)
 ****
 1  2  3  4  5  17  18  19  20  21  22  23  24  25 0
 3-21G
 ****
 26  28  29  30  38  39  40  41  42  43  44  45 0
 3-21G
 ****


