%nproc=1
%NoSave
%Mem=1900MB
#P OB98/GEN NMR

erre ene a

0 1
  C     -123.539     492.085     985.438
  O     -122.275     491.832     984.848
  P     -121.480     492.952     984.034
  C     -120.291     494.384     985.868
  O     -120.161     493.344     984.886
  C     -118.932     494.952     986.310
  O     -118.094     493.894     986.820
  C     -118.183     495.534     985.095
  O     -118.462     496.851     984.665
  C     -116.697     495.250     985.378
  O     -116.032     496.373     985.918
  C     -116.755     494.100     986.381
  N     -112.771     491.748     984.265
  C     -112.821     492.974     984.911
  N     -111.711     493.728     984.808
  N     -113.863     493.409     985.569
  C     -114.929     492.570     985.490
  C     -115.016     491.324     984.905
  C     -113.824     490.849     984.218
  O     -113.779     489.798     983.554
  N     -116.267     490.795     984.972
  C     -116.980     491.732     985.569
  N     -116.224     492.842     985.883
  O     -122.279     494.044     983.409
  O     -120.841     492.078     982.828
  H     -115.099     496.138     986.100
  H     -120.808     492.634     982.034
  H     -111.973     491.515     983.721
  H     -118.042     491.677     985.776
  H     -116.173     494.352     987.280
  H     -116.184     495.010     984.448
  H     -110.942     493.496     984.181
  H     -118.434     494.904     984.233
  H     -111.773     494.705     985.131
  H     -119.043     495.659     987.142
  H     -120.832     493.947     986.728
  H     -120.901     495.184     985.470
  P     -118.503     497.368     983.142
  C     -120.732     496.260     982.487
  O     -120.030     497.491     982.690
  O     -117.975     496.097     982.286
  O     -117.657     498.571     982.863
  H     -117.635     496.397     981.419
  H     -121.621     496.452     981.905
  H     -121.006     495.843     983.453
  H     -120.100     495.546     981.950
  H     -123.886     491.201     985.930
  H     -124.237     492.368     984.678
  H     -123.448     492.878     986.151

 3  4  5  6  7  8  9  10  11  12  23  26  30  31 0
 6-311+G(2d,p)
 ****
 33  35  36  37  38 0
 6-311+G(2d,p)
 ****
 1  2  13  14  15  16  17  18  19  20  21  22  24  25 0
 3-21G
 ****
 27  28  29  32  34  39  40  41  42  43  44  45  46  47  48  49 0
 3-21G
 ****


