%nproc=1
%NoSave
%Mem=1900MB
#P OB98/GEN NMR

erre ene a

0 1
  C     -165.561       1.915     609.346
  O     -165.229       0.952     610.374
  P     -166.457       0.214     611.104
  C     -165.834      -0.202     613.616
  O     -165.790      -0.655     612.275
  C     -165.063      -1.170     614.523
  O     -165.564      -2.520     614.359
  C     -163.583      -1.233     614.242
  O     -162.894      -0.088     614.720
  C     -163.211      -2.535     614.942
  O     -163.058      -2.309     616.360
  C     -164.469      -3.411     614.687
  N     -164.258      -4.405     613.643
  C     -163.561      -5.544     614.029
  O     -163.129      -5.717     615.169
  N     -163.391      -6.493     613.049
  C     -163.784      -6.408     611.755
  O     -163.608      -7.275     610.922
  C     -164.468      -5.145     611.390
  C     -164.677      -4.222     612.338
  O     -166.872      -0.851     609.983
  O     -167.539       1.142     611.516
  H     -166.109      -1.206     609.487
  H     -162.543      -1.477     616.458
  H     -162.901      -7.340     613.321
  H     -164.781      -5.024     610.366
  H     -165.180      -3.280     612.082
  H     -164.764      -3.925     615.606
  H     -162.279      -2.965     614.573
  H     -163.413      -1.341     613.159
  H     -165.243      -0.855     615.566
  H     -166.868      -0.128     613.955
  H     -165.418       0.809     613.655
  P     -161.903       0.652     613.691
  C     -160.256       1.503     615.552
  O     -161.188       1.817     614.519
  O     -162.945       1.442     612.760
  O     -160.987      -0.270     612.951
  H     -163.665       1.871     613.272
  H     -159.632       2.378     615.740
  H     -159.627       0.669     615.261
  H     -160.804       1.255     616.460
  H     -164.661       2.331     608.943
  H     -166.157       2.697     609.769
  H     -166.110       1.430     608.566

 3  4  5  6  7  8  9  10  11  12  13  24  28  29  30  31  32 0
 6-311+G(2d,p)
 ****
 33  34 0
 6-311+G(2d,p)
 ****
 1  2  14  15  16  17  18  19  20  21  22  23  25  26  27 0
 3-21G
 ****
 35  36  37  38  39  40  41  42  43  44  45 0
 3-21G
 ****


