%nproc=1
%NoSave
%Mem=1900MB
#P OB98/GEN NMR

erre ene a

0 1
  C      102.288     -58.535      63.297
  O      101.139     -58.102      62.597
  H      102.993     -58.966      62.581
  H      102.018     -59.299      64.031
  H      102.766     -57.689      63.797
  P       99.952     -57.490      63.490
  C       98.365     -58.414      65.321
  O       99.351     -58.712      64.341
  C       97.717     -59.698      65.833
  O       98.715     -60.710      66.087
  C       96.922     -59.529      67.124
  O       95.613     -59.054      66.856
  C       96.933     -60.952      67.665
  O       95.936     -61.764      67.007
  C       98.347     -61.424      67.297
  N       99.718     -62.555      72.028
  C       98.583     -62.901      71.320
  N       97.659     -63.634      71.980
  N       98.363     -62.550      70.081
  C       99.343     -61.765      69.565
  C      100.511     -61.354      70.164
  C      100.767     -61.799      71.516
  O      101.790     -61.593      72.166
  N      101.262     -60.588      69.308
  C      100.530     -60.511      68.210
  N       99.352     -61.205      68.320
  O       98.798     -57.186      62.420
  O      100.301     -56.266      64.266
  H       95.817     -61.445      66.096
  H       98.349     -56.355      62.671
  H       99.850     -62.879      72.968
  H      100.811     -59.971      67.314
  H       98.370     -62.493      67.063
  H       96.696     -60.980      68.730
  H       97.633     -63.684      72.988
  H       97.448     -58.869      67.826
  H       96.795     -63.826      71.483
  H       97.069     -60.080      65.031
  H       97.602     -57.774      64.870
  H       98.837     -57.881      66.153
  P       94.811     -58.340      68.044
  C       92.799     -59.076      69.517
  O       93.979     -59.468      68.830
  O       93.678     -57.516      67.266
  O       95.633     -57.438      68.900
  H       93.904     -56.566      67.265
  H       92.360     -59.931      69.988
  H       92.104     -58.656      68.821
  H       93.045     -58.346      70.260

 6  7  8  9  10  11  12  13  14  15  26  29  33  34 0
 6-311+G(2d,p)
 ****
 36  38  39  40  41 0
 6-311+G(2d,p)
 ****
 1  2  3  4  5  16  17  18  19  20  21  22  23  24  25 0
 3-21G
 ****
 27  28  30  31  32  35  37  42  43  44  45  46  47 0
 3-21G
 ****
 48  49 0
 3-21G
 ****


