%nproc=1
%NoSave
%Mem=1900MB
#P OB98/GEN NMR

erre ene a

0 1
  C      395.289      22.955     261.440
  O      394.240      22.882     262.380
  H      396.232      22.731     261.953
  H      395.353      23.960     261.020
  H      395.148      22.225     260.638
  P      392.729      23.004     261.858
  C      392.610      25.472     262.594
  O      392.475      24.550     261.516
  C      391.412      26.421     262.614
  O      391.165      26.931     261.286
  C      390.110      25.761     263.048
  O      390.076      25.548     264.445
  C      389.093      26.761     262.523
  O      388.942      27.864     263.420
  C      389.751      27.218     261.199
  N      389.147      26.571     260.034
  C      388.385      27.385     259.206
  O      388.216      28.588     259.400
  N      387.767      26.753     258.157
  C      387.725      25.404     257.956
  O      386.960      24.868     257.162
  C      388.601      24.601     258.825
  C      389.251      25.211     259.821
  O      391.693      22.369     262.722
  O      392.778      22.324     260.408
  H      392.406      21.422     260.464
  H      389.831      28.030     263.793
  H      387.176      27.331     257.575
  H      388.647      23.536     258.652
  H      389.877      24.637     260.496
  H      389.654      28.307     261.082
  H      388.116      26.299     262.386
  H      389.984      24.812     262.517
  H      391.657      27.270     263.267
  H      393.530      26.048     262.449
  H      392.680      24.915     263.532
  P      389.672      24.114     265.036
  C      388.326      24.918     267.070
  O      388.276      24.260     265.805
  O      390.745      23.416     265.804
  O      389.266      23.263     263.735
  H      389.738      22.410     263.758
  H      387.343      24.958     267.490
  H      388.700      25.912     266.940
  H      388.973      24.377     267.728

 6  7  8  9  10  11  12  13  14  15  16  27  31  32  33  34  35 0
 6-311+G(2d,p)
 ****
 36  37 0
 6-311+G(2d,p)
 ****
 1  2  3  4  5  17  18  19  20  21  22  23  24  25 0
 3-21G
 ****
 26  28  29  30  38  39  40  41  42  43  44  45 0
 3-21G
 ****


