%nproc=1
%NoSave
%Mem=1900MB
#P OB98/GEN NMR

erre ene a

0 1
  C      273.497     410.677    -690.482
  O      274.153     411.693    -689.755
  H      273.411     409.789    -689.854
  H      274.083     410.418    -691.372
  H      272.495     411.001    -690.776
  P      274.224     413.145    -690.441
  C      275.182     415.386    -689.459
  O      275.295     413.979    -689.577
  C      275.717     415.851    -688.100
  O      274.822     415.374    -687.057
  C      277.122     415.332    -687.781
  O      277.822     416.344    -687.042
  C      276.860     414.147    -686.862
  O      277.979     413.839    -686.041
  C      275.603     414.626    -686.111
  N      274.835     413.513    -685.538
  C      275.324     412.964    -684.347
  O      276.348     413.410    -683.834
  N      274.659     411.896    -683.789
  C      273.641     411.382    -684.407
  N      273.038     410.310    -683.816
  C      273.125     411.904    -685.686
  C      273.758     412.960    -686.190
  O      272.820     413.781    -690.016
  O      274.471     413.121    -691.916
  H      278.271     414.658    -685.585
  H      272.595     413.629    -689.079
  H      272.271     411.430    -686.172
  H      273.437     413.408    -687.124
  H      275.877     415.303    -685.293
  H      276.622     413.253    -687.466
  H      277.689     415.064    -688.670
  H      275.684     416.949    -688.066
  H      273.437     409.976    -682.945
  H      274.135     415.692    -689.558
  H      272.281     409.798    -684.228
  H      275.758     415.850    -690.267
  P      278.925     417.236    -687.792
  C      281.110     418.486    -687.190
  O      280.147     417.526    -686.786
  O      278.414     418.427    -688.524
  O      279.577     416.182    -688.824
  H      279.725     416.651    -689.673
  H      281.860     418.579    -686.433
  H      280.631     419.432    -687.336
  H      281.565     418.171    -688.106

 6  7  8  9  10  11  12  13  14  15  16  26  30  31  32  33  35 0
 6-311+G(2d,p)
 ****
 37  38 0
 6-311+G(2d,p)
 ****
 1  2  3  4  5  17  18  19  20  21  22  23  24  25 0
 3-21G
 ****
 27  28  29  34  36  39  40  41  42  43  44  45  46 0
 3-21G
 ****


