%nproc=1
%NoSave
%Mem=1900MB
#P OB98/GEN NMR

erre ene a

0 1
  C     -258.685     764.893      41.903
  O     -258.212     764.473      40.646
  P     -257.260     765.355      39.723
  C     -255.054     764.107      40.392
  O     -255.780     765.334      40.342
  C     -253.634     764.282      39.828
  O     -252.997     765.390      40.521
  C     -252.770     763.031      40.085
  O     -251.949     762.663      38.986
  C     -252.073     763.366      41.398
  O     -250.899     762.598      41.630
  C     -251.874     764.877      41.269
  N     -248.802     766.889      44.781
  C     -248.497     766.461      43.502
  N     -247.185     766.379      43.194
  N     -249.399     766.097      42.630
  C     -250.664     766.109      43.118
  C     -251.083     766.529      44.364
  C     -250.083     766.956      45.300
  O     -250.296     767.244      46.485
  N     -252.434     766.344      44.528
  C     -252.826     765.787      43.395
  N     -251.782     765.595      42.523
  O     -257.803     766.668      39.247
  O     -257.091     764.400      38.430
  H     -251.183     761.668      41.746
  H     -257.018     764.982      37.648
  H     -248.049     767.085      45.432
  H     -253.844     765.479      43.167
  H     -250.967     765.114      40.715
  H     -252.773     763.133      42.206
  H     -246.470     766.511      43.895
  H     -253.408     762.148      40.232
  H     -246.928     765.838      42.377
  H     -253.695     764.545      38.761
  H     -255.620     763.397      39.776
  H     -255.021     763.716      41.409
  P     -251.341     761.234      38.622
  C     -252.888     760.621      36.666
  O     -252.514     760.332      37.993
  O     -251.065     760.528      40.027
  O     -250.090     761.269      37.809
  H     -250.231     760.027      39.989
  H     -253.856     760.152      36.459
  H     -252.145     760.239      35.974
  H     -252.989     761.705      36.519
  H     -259.304     764.129      42.325
  H     -259.256     765.791      41.788
  H     -257.855     765.079      42.552

 3  4  5  6  7  8  9  10  11  12  23  26  30  31 0
 6-311+G(2d,p)
 ****
 33  35  36  37  38 0
 6-311+G(2d,p)
 ****
 1  2  13  14  15  16  17  18  19  20  21  22  24  25 0
 3-21G
 ****
 27  28  29  32  34  39  40  41  42  43  44  45  46  47  48  49 0
 3-21G
 ****


