%nproc=1
%NoSave
%Mem=1900MB
#P OB98/GEN NMR

erre ene a

0 1
  C      356.323    -391.236    -661.292
  O      357.666    -391.389    -660.865
  H      356.122    -391.956    -662.090
  H      356.167    -390.221    -661.682
  H      355.635    -391.423    -660.456
  P      358.173    -390.368    -659.732
  C      358.989    -392.059    -657.941
  O      359.356    -391.122    -658.953
  C      360.236    -392.716    -657.352
  O      360.763    -393.742    -658.235
  C      361.390    -391.750    -657.074
  O      361.213    -391.106    -655.823
  C      362.579    -392.694    -657.087
  O      362.697    -393.394    -655.834
  C      362.205    -393.680    -658.219
  N      365.737    -394.634    -661.706
  C      365.568    -395.163    -660.441
  N      366.497    -396.051    -660.028
  N      364.587    -394.831    -659.638
  C      363.767    -393.884    -660.157
  C      363.826    -393.289    -661.393
  C      364.877    -393.709    -662.293
  O      365.038    -393.342    -663.461
  N      362.800    -392.392    -661.574
  C      362.151    -392.412    -660.417
  N      362.696    -393.311    -659.531
  O      356.974    -390.368    -658.673
  O      358.483    -388.987    -660.199
  H      363.440    -394.011    -655.878
  H      356.869    -389.457    -658.320
  H      366.489    -394.952    -662.288
  H      361.270    -391.822    -660.198
  H      362.582    -394.691    -658.021
  H      363.519    -392.156    -657.234
  H      367.406    -396.124    -660.460
  H      361.491    -391.024    -657.896
  H      366.417    -396.371    -659.061
  H      359.930    -393.229    -656.421
  H      358.352    -392.838    -658.402
  H      358.427    -391.553    -657.159
  P      361.496    -389.525    -655.758
  C      359.988    -389.460    -653.644
  O      361.198    -389.030    -654.259
  O      360.277    -388.897    -656.603
  O      362.824    -389.108    -656.315
  H      360.614    -388.603    -657.486
  H      359.927    -389.055    -652.656
  H      359.974    -390.529    -653.593
  H      359.154    -389.120    -654.221

 6  7  8  9  10  11  12  13  14  15  26  29  33  34 0
 6-311+G(2d,p)
 ****
 36  38  39  40  41 0
 6-311+G(2d,p)
 ****
 1  2  3  4  5  16  17  18  19  20  21  22  23  24  25 0
 3-21G
 ****
 27  28  30  31  32  35  37  42  43  44  45  46  47 0
 3-21G
 ****
 48  49 0
 3-21G
 ****


