%nproc=1
%NoSave
%Mem=1900MB
#P OB98/GEN NMR

erre ene a

0 1
  C     -591.182     401.715    -711.727
  O     -592.238     400.860    -712.131
  H     -590.236     401.215    -711.928
  H     -591.250     401.913    -710.652
  H     -591.216     402.658    -712.281
  P     -593.746     401.370    -711.927
  C     -594.983     400.463    -709.838
  O     -593.993     401.370    -710.338
  C     -594.346     399.112    -709.532
  O     -593.120     399.292    -708.795
  C     -595.230     398.187    -708.683
  O     -596.189     397.539    -709.502
  C     -594.178     397.244    -708.123
  O     -593.789     396.296    -709.137
  C     -593.012     398.221    -707.828
  N     -591.614     397.605    -702.985
  C     -591.473     396.751    -704.062
  N     -590.906     395.560    -703.812
  N     -591.860     397.049    -705.282
  C     -592.468     398.246    -705.376
  C     -592.694     399.176    -704.370
  C     -592.205     398.855    -703.042
  O     -592.303     399.592    -702.062
  N     -593.409     400.256    -704.825
  C     -593.571     400.007    -706.119
  N     -593.043     398.788    -706.489
  O     -594.804     400.652    -712.709
  O     -593.681     402.929    -712.283
  H     -593.169     395.674    -708.721
  H     -593.901     403.085    -713.221
  H     -591.313     397.314    -702.062
  H     -594.089     400.674    -706.813
  H     -592.030     397.742    -707.964
  H     -594.533     396.678    -707.270
  H     -590.849     395.177    -702.883
  H     -595.697     398.732    -707.852
  H     -590.821     394.900    -704.584
  H     -594.076     398.630    -710.487
  H     -595.756     400.363    -710.613
  H     -595.449     400.874    -708.936
  P     -597.721     397.381    -709.015
  C     -598.501     395.189    -707.861
  O     -597.642     396.332    -707.795
  O     -598.687     397.013    -710.097
  O     -598.048     398.759    -708.277
  H     -598.409     399.448    -708.886
  H     -598.350     394.579    -706.995
  H     -598.275     394.623    -708.740
  H     -599.521     395.511    -707.897

 6  7  8  9  10  11  12  13  14  15  26  29  33  34 0
 6-311+G(2d,p)
 ****
 36  38  39  40  41 0
 6-311+G(2d,p)
 ****
 1  2  3  4  5  16  17  18  19  20  21  22  23  24  25 0
 3-21G
 ****
 27  28  30  31  32  35  37  42  43  44  45  46  47 0
 3-21G
 ****
 48  49 0
 3-21G
 ****


