%nproc=1
%NoSave
%Mem=1900MB
#P OB98/GEN NMR

erre ene a

0 1
  C     -451.042     222.981     -42.557
  O     -451.654     223.923     -41.703
  P     -450.926     225.341     -41.506
  C     -450.265     224.860     -39.029
  O     -449.829     225.156     -40.349
  C     -449.645     225.864     -38.049
  O     -448.203     225.759     -38.062
  C     -449.956     227.315     -38.389
  O     -451.258     227.684     -37.978
  C     -448.849     228.047     -37.636
  O     -449.211     228.240     -36.254
  C     -447.668     227.061     -37.762
  N     -446.682     227.485     -38.756
  C     -445.596     228.209     -38.264
  O     -445.464     228.495     -37.071
  N     -444.683     228.616     -39.194
  C     -444.766     228.436     -40.544
  O     -443.946     228.873     -41.334
  C     -445.956     227.692     -41.011
  C     -446.850     227.266     -40.108
  O     -452.047     226.256     -40.824
  O     -450.401     225.945     -42.767
  H     -448.381     228.464     -35.784
  H     -451.962     227.180     -41.151
  H     -443.873     229.117     -38.855
  H     -446.057     227.527     -42.072
  H     -447.733     226.730     -40.433
  H     -447.156     226.959     -36.792
  H     -448.647     229.041     -38.054
  H     -449.816     227.484     -39.469
  H     -450.000     225.626     -37.036
  H     -449.957     223.849     -38.762
  H     -451.356     224.916     -38.988
  P     -451.889     228.999     -38.650
  C     -451.460     230.366     -36.459
  O     -451.236     230.231     -37.848
  O     -453.402     228.908     -38.120
  O     -451.748     229.025     -40.136
  H     -453.453     228.502     -37.240
  H     -451.508     229.393     -35.959
  H     -452.395     230.910     -36.294
  H     -450.634     230.938     -36.025
  H     -451.636     222.091     -42.590
  H     -450.066     222.745     -42.187
  H     -450.960     223.392     -43.541

 3  4  5  6  7  8  9  10  11  12  13  23  28  29  30  31  32 0
 6-311+G(2d,p)
 ****
 33  34 0
 6-311+G(2d,p)
 ****
 1  2  14  15  16  17  18  19  20  21  22  24  25  26 0
 3-21G
 ****
 27  35  36  37  38  39  40  41  42  43  44  45 0
 3-21G
 ****


