%nproc=1
%NoSave
%Mem=1900MB
#P OB98/GEN NMR

erre ene a

0 1
  C      179.802     193.424    -250.519
  O      179.192     194.579    -251.072
  P      178.269     194.400    -252.369
  C      179.867     195.593    -254.037
  O      178.605     195.599    -253.384
  C      179.810     196.394    -255.340
  O      179.000     195.684    -256.315
  C      179.201     197.795    -255.176
  O      179.841     198.700    -256.088
  C      177.773     197.614    -255.646
  O      177.203     198.849    -256.076
  C      177.966     196.582    -256.761
  N      173.504     196.793    -259.134
  C      174.606     197.615    -259.265
  N      174.464     198.689    -260.075
  N      175.747     197.400    -258.664
  C      175.739     196.295    -257.876
  C      174.715     195.396    -257.679
  C      173.455     195.654    -258.342
  O      172.432     194.979    -258.248
  N      175.093     194.377    -256.842
  C      176.332     194.676    -256.496
  N      176.755     195.850    -257.069
  O      176.809     194.772    -251.824
  O      178.285     193.032    -252.965
  H      176.273     198.667    -256.311
  H      176.280     193.956    -251.716
  H      172.642     197.005    -259.609
  H      176.950     194.098    -255.821
  H      178.316     197.055    -257.689
  H      177.157     197.210    -254.833
  H      173.593     198.947    -260.513
  H      179.258     198.198    -254.160
  H      175.241     199.330    -260.154
  H      180.824     196.461    -255.755
  H      180.147     194.563    -254.261
  H      180.626     196.014    -253.369
  P      180.670     199.900    -255.417
  C      178.778     201.669    -255.706
  O      180.088     201.250    -256.054
  O      182.122     199.763    -256.082
  O      180.725     199.852    -253.927
  H      182.802     200.145    -255.499
  H      178.840     202.627    -255.191
  H      178.267     200.944    -255.062
  H      178.189     201.792    -256.623
  H      180.382     193.702    -249.664
  H      180.439     192.972    -251.251
  H      179.045     192.727    -250.225

 3  4  5  6  7  8  9  10  11  12  23  26  30  31 0
 6-311+G(2d,p)
 ****
 33  35  36  37  38 0
 6-311+G(2d,p)
 ****
 1  2  13  14  15  16  17  18  19  20  21  22  24  25 0
 3-21G
 ****
 27  28  29  32  34  39  40  41  42  43  44  45  46  47  48  49 0
 3-21G
 ****


