%nproc=1
%NoSave
%Mem=1900MB
#P OB98/GEN NMR

erre ene a

0 1
  C      152.267     -20.949    -128.794
  O      150.949     -20.983    -128.290
  H      152.350     -20.124    -129.505
  H      152.495     -21.884    -129.312
  H      152.981     -20.789    -127.982
  P      150.609     -22.113    -127.199
  C      150.048     -23.718    -129.169
  O      150.794     -23.509    -127.978
  C      150.131     -25.185    -129.602
  O      151.499     -25.498    -129.957
  C      149.696     -26.163    -128.508
  O      148.884     -27.186    -129.088
  C      150.999     -26.741    -127.987
  O      150.828     -28.041    -127.423
  C      151.898     -26.674    -129.227
  N      153.314     -26.623    -128.870
  C      153.992     -27.844    -128.806
  O      153.394     -28.898    -129.032
  N      155.314     -27.851    -128.437
  C      155.893     -26.740    -128.101
  N      157.197     -26.815    -127.723
  C      155.204     -25.435    -128.107
  C      153.932     -25.447    -128.504
  O      149.026     -21.982    -127.029
  O      151.369     -22.010    -125.918
  H      151.648     -28.267    -126.932
  H      148.706     -22.472    -126.233
  H      155.725     -24.539    -127.803
  H      153.346     -24.536    -128.538
  H      151.731     -27.546    -129.874
  H      151.398     -26.086    -127.202
  H      149.137     -25.683    -127.706
  H      149.533     -25.313    -130.511
  H      157.634     -27.728    -127.721
  H      150.454     -23.079    -129.959
  H      157.738     -26.020    -127.413
  H      149.002     -23.448    -128.991
  P      147.306     -27.071    -128.811
  C      147.380     -28.397    -126.584
  O      147.085     -27.164    -127.222
  O      146.728     -28.458    -129.362
  O      146.670     -25.889    -129.464
  H      146.349     -28.339    -130.252
  H      147.187     -28.311    -125.535
  H      148.410     -28.641    -126.738
  H      146.765     -29.169    -126.998

 6  7  8  9  10  11  12  13  14  15  16  26  30  31  32  33  35 0
 6-311+G(2d,p)
 ****
 37  38 0
 6-311+G(2d,p)
 ****
 1  2  3  4  5  17  18  19  20  21  22  23  24  25 0
 3-21G
 ****
 27  28  29  34  36  39  40  41  42  43  44  45  46 0
 3-21G
 ****


