%nproc=1
%NoSave
%Mem=1900MB
#P OB98/GEN NMR

erre ene a

0 1
  C      336.570      35.600    -727.855
  O      335.993      36.794    -728.402
  P      335.699      37.972    -727.338
  C      333.430      37.235    -726.281
  O      334.847      37.344    -726.125
  C      332.755      36.830    -724.972
  O      331.305      36.856    -725.163
  C      333.109      35.415    -724.474
  O      333.174      35.442    -723.041
  C      331.899      34.582    -724.859
  O      331.778      33.414    -724.058
  C      330.783      35.624    -724.652
  N      326.400      33.095    -724.323
  C      327.369      33.327    -723.360
  N      327.149      32.784    -722.135
  N      328.455      34.028    -723.566
  C      328.536      34.520    -724.831
  C      327.641      34.377    -725.880
  C      326.462      33.553    -725.631
  O      325.606      33.271    -726.461
  N      328.066      35.033    -726.999
  C      329.230      35.582    -726.642
  N      329.548      35.287    -725.339
  O      334.638      38.902    -728.112
  O      336.905      38.752    -726.942
  H      331.822      33.700    -723.122
  H      334.977      39.822    -728.175
  H      325.596      32.534    -724.111
  H      329.859      36.152    -727.288
  H      330.550      35.748    -723.588
  H      331.986      34.289    -725.911
  H      326.290      32.297    -721.878
  H      334.036      35.029    -724.882
  H      327.805      32.980    -721.405
  H      332.991      37.580    -724.210
  H      333.213      36.500    -727.056
  H      333.052      38.211    -726.622
  P      334.591      35.868    -722.388
  C      335.143      33.534    -721.380
  O      335.458      34.502    -722.342
  O      334.223      36.125    -720.852
  O      335.239      37.045    -723.041
  H      334.860      36.761    -720.457
  H      334.191      33.715    -720.872
  H      335.938      33.499    -720.621
  H      335.085      32.549    -721.875
  H      336.724      34.887    -728.638
  H      335.908      35.187    -727.122
  H      337.508      35.835    -727.397

 3  4  5  6  7  8  9  10  11  12  23  26  30  31  33  0
 6-311+G(2d,p)
 ****
 35  36  37  38 0
 6-311+G(2d,p)
 ****
 1  2  13  14  15  16  17  18  19  20  21  22  24  25  27  28  29 0
 3-21G
 ****
 32  34  39  40  41  42  43  44  45  46  47  48  49 0
 3-21G
 ****


