%nproc=1
%NoSave
%Mem=1900MB
#P OB98/GEN NMR

erre ene a

0 1
  C      145.492     114.195    -166.041
  O      146.880     113.995    -165.870
  H      144.964     113.689    -165.228
  H      145.157     113.772    -166.991
  H      145.252     115.261    -166.000
  P      147.883     114.582    -166.972
  C      149.254     112.408    -167.205
  O      149.263     113.778    -166.816
  C      150.475     111.686    -166.623
  O      151.654     112.225    -167.271
  C      150.617     111.898    -165.109
  O      150.740     110.678    -164.382
  C      151.758     112.902    -165.001
  O      152.477     112.851    -163.787
  C      152.595     112.610    -166.252
  N      153.405     113.741    -166.700
  C      154.786     113.567    -166.721
  O      155.375     112.533    -166.418
  N      155.511     114.657    -167.130
  C      155.007     115.867    -167.499
  O      155.708     116.804    -167.862
  C      153.544     115.996    -167.433
  C      152.821     114.944    -167.041
  O      148.025     116.067    -166.991
  O      147.301     114.031    -168.358
  H      151.899     113.212    -163.084
  H      146.817     114.743    -168.815
  H      156.512     114.539    -167.161
  H      153.109     116.947    -167.709
  H      151.738     115.003    -166.984
  H      153.267     111.770    -166.075
  H      151.336     113.911    -165.082
  H      149.709     112.349    -164.691
  H      150.413     110.623    -166.880
  H      149.273     112.367    -168.297
  H      148.335     111.930    -166.846
  P      149.698     110.163    -163.289
  C      151.520     109.296    -161.615
  O      150.400     109.005    -162.438
  O      148.320     109.892    -163.790
  O      149.608     111.396    -162.253
  H      148.693     111.399    -161.904
  H      151.848     108.401    -161.129
  H      151.243     110.021    -160.878
  H      152.314     109.686    -162.218

 6  7  8  9  10  11  12  13  14  15  16  26  31  32  33  34  35 0
 6-311+G(2d,p)
 ****
 36  37 0
 6-311+G(2d,p)
 ****
 1  2  3  4  5  17  18  19  20  21  22  23  24  25 0
 3-21G
 ****
 27  28  29  30  38  39  40  41  42  43  44  45 0
 3-21G
 ****


