%nproc=1
%NoSave
%Mem=1900MB
#P OB98/GEN NMR

erre ene a

0 1
  C     1338.681     111.321     720.068
  O     1338.323     111.404     718.680
  P     1339.463     111.941     717.688
  C     1338.896     114.447     717.978
  O     1339.863     113.428     718.124
  C     1339.527     115.860     718.002
  O     1338.579     116.852     717.546
  C     1339.965     116.291     719.420
  O     1341.135     117.098     719.292
  C     1338.818     117.163     719.890
  O     1339.222     118.031     720.984
  C     1338.450     117.866     718.595
  N     1335.498     121.552     720.581
  C     1336.819     121.236     720.723
  N     1337.532     120.233     720.180
  C     1336.743     119.498     719.352
  C     1335.383     119.675     719.103
  C     1334.773     120.755     719.770
  N     1333.421     121.033     719.614
  N     1334.919     118.702     718.237
  C     1335.979     117.957     717.973
  N     1337.093     118.425     718.614
  O     1338.683     112.168     716.300
  O     1340.631     111.022     717.493
  H     1338.410     118.487     721.286
  H     1338.927     111.454     715.670
  H     1337.377     121.919     721.394
  H     1335.984     117.064     717.358
  H     1339.135     118.704     718.354
  H     1337.993     116.526     720.232
  H     1340.178     115.468     720.111
  H     1340.368     115.872     717.339
  H     1338.138     114.389     718.791
  H     1333.052     121.807     720.142
  H     1332.852     120.438     719.071
  H     1338.319     114.297     717.033
  P     1342.554     116.349     719.196
  C     1343.285     116.629     721.671
  O     1342.816     115.767     720.662
  O     1343.608     117.528     719.081
  O     1342.662     115.381     718.066
  H     1344.407     117.204     718.645
  H     1342.764     116.404     722.608
  H     1343.100     117.695     721.434
  H     1344.361     116.475     721.821
  H     1337.848     110.953     720.630
  H     1338.951     112.293     720.426
  H     1339.511     110.656     720.183

 3  4  5  6  7  8  9  10  11  12  22  25  29  30  31  32 0
 6-311+G(2d,p)
 ****
 33  36  37 0
 6-311+G(2d,p)
 ****
 1  2  13  14  15  16  17  18  19  20  21  23  24  26 0
 3-21G
 ****
 27  28  34  35  38  39  40  41  42  43  44  45  46  47  48 0
 3-21G
 ****


