%nproc=1
%NoSave
%Mem=1900MB
#P OB98/GEN NMR

erre ene a

0 1
  C     -798.697     249.017     194.712
  O     -799.512     249.449     193.645
  H     -799.339     248.717     195.544
  H     -798.055     249.836     195.044
  H     -798.086     248.159     194.418
  P     -798.851     249.671     192.203
  C     -800.240     247.747     191.200
  O     -798.943     248.259     191.440
  C     -800.214     246.215     191.089
  O     -799.863     245.662     192.391
  C     -801.555     245.597     190.673
  O     -801.263     244.401     189.934
  C     -802.168     245.251     192.019
  O     -803.218     244.318     191.888
  C     -800.930     244.773     192.780
  N     -801.131     244.761     194.227
  C     -801.745     243.628     194.757
  O     -802.144     242.689     194.067
  N     -801.945     243.628     196.112
  C     -801.645     244.657     196.956
  O     -801.872     244.614     198.162
  C     -801.034     245.841     196.338
  C     -800.806     245.837     195.020
  O     -797.495     250.294     192.202
  O     -799.918     250.560     191.410
  H     -803.605     244.117     192.765
  H     -799.461     251.133     190.758
  H     -802.383     242.817     196.512
  H     -800.791     246.678     196.983
  H     -800.357     246.695     194.536
  H     -800.648     243.754     192.466
  H     -802.586     246.144     192.494
  H     -802.176     246.271     190.082
  H     -799.417     245.930     190.397
  H     -800.606     248.175     190.259
  H     -800.913     248.045     192.010
  P     -801.014     244.418     188.351
  C     -798.640     243.426     188.438
  O     -799.441     244.546     188.078
  O     -801.849     245.408     187.607
  O     -801.346     242.926     187.874
  H     -801.650     242.935     186.944
  H     -797.615     243.632     188.209
  H     -798.962     242.566     187.889
  H     -798.740     243.238     189.487

 6  7  8  9  10  11  12  13  14  15  16  26  31  32  33  34  35 0
 6-311+G(2d,p)
 ****
 36  37 0
 6-311+G(2d,p)
 ****
 1  2  3  4  5  17  18  19  20  21  22  23  24  25 0
 3-21G
 ****
 27  28  29  30  38  39  40  41  42  43  44  45 0
 3-21G
 ****


