%nproc=1
%NoSave
%Mem=1900MB
#P OB98/GEN NMR

erre ene a

0 1
  C     -179.398     219.755     -48.462
  O     -180.546     218.943     -48.726
  P     -180.340     217.656     -49.668
  C     -181.226     218.552     -51.960
  O     -180.108     218.230     -51.151
  C     -180.777     219.050     -53.341
  O     -180.038     217.992     -54.028
  C     -181.922     219.493     -54.262
  O     -181.438     220.625     -55.003
  C     -182.107     218.301     -55.181
  O     -182.747     218.660     -56.398
  C     -180.650     217.827     -55.323
  N     -180.549     216.449     -55.796
  C     -180.560     216.252     -57.169
  O     -180.721     217.166     -57.976
  N     -180.420     214.959     -57.592
  C     -180.351     213.855     -56.789
  O     -180.223     212.717     -57.218
  C     -180.463     214.120     -55.343
  C     -180.557     215.379     -54.925
  O     -181.818     217.049     -49.705
  O     -179.284     216.733     -49.165
  H     -182.517     217.725     -49.715
  H     -182.912     217.848     -56.922
  H     -180.386     214.795     -58.591
  H     -180.467     213.263     -54.674
  H     -180.660     215.602     -53.866
  H     -180.108     218.471     -56.025
  H     -182.714     217.536     -54.682
  H     -182.827     219.770     -53.713
  H     -180.078     219.881     -53.184
  H     -181.820     219.339     -51.483
  H     -181.877     217.665     -52.055
  P     -181.656     222.091     -54.375
  C     -184.136     222.478     -55.131
  O     -183.221     222.248     -54.083
  O     -181.451     222.987     -55.696
  O     -180.715     222.457     -53.275
  H     -181.943     222.658     -56.460
  H     -185.149     222.320     -54.760
  H     -183.955     221.792     -55.965
  H     -184.047     223.513     -55.486
  H     -179.676     220.570     -47.827
  H     -179.011     220.137     -49.384
  H     -178.648     219.165     -47.978

 3  4  5  6  7  8  9  10  11  12  13  24  28  29  30  31  32 0
 6-311+G(2d,p)
 ****
 33  34 0
 6-311+G(2d,p)
 ****
 1  2  14  15  16  17  18  19  20  21  22  23  25  26  27 0
 3-21G
 ****
 35  36  37  38  39  40  41  42  43  44  45 0
 3-21G
 ****


