%nproc=1
%NoSave
%Mem=1900MB
#P OB98/GEN NMR

erre ene a

0 1
  C       40.441      78.081    -111.828
  O       40.230      79.478    -111.944
  P       38.762      80.040    -111.619
  C       38.833      81.397    -113.837
  O       38.123      80.473    -113.025
  C       38.880      80.904    -115.281
  O       39.906      79.905    -115.447
  C       37.593      80.240    -115.755
  O       36.610      81.184    -116.146
  C       38.094      79.464    -116.962
  O       38.218      80.341    -118.095
  C       39.479      78.997    -116.492
  N       42.242      74.817    -115.793
  C       42.638      76.086    -116.170
  N       43.948      76.244    -116.459
  N       41.826      77.106    -116.255
  C       40.543      76.795    -115.945
  C       40.030      75.578    -115.555
  C       40.939      74.455    -115.477
  O       40.639      73.299    -115.202
  N       38.684      75.656    -115.317
  C       38.379      76.915    -115.559
  N       39.465      77.636    -115.985
  O       39.052      81.442    -110.903
  O       37.922      79.140    -110.776
  H       37.311      80.499    -118.426
  H       38.258      81.742    -110.422
  H       42.906      74.063    -115.749
  H       37.391      77.343    -115.457
  H       40.220      79.051    -117.294
  H       37.419      78.655    -117.257
  H       44.612      75.485    -116.475
  H       37.208      79.538    -115.004
  H       44.255      77.148    -116.799
  H       39.131      81.758    -115.923
  H       39.850      81.505    -113.454
  H       38.341      82.374    -113.787
  P       35.182      81.083    -115.420
  C       34.104      80.087    -117.562
  O       34.395      79.918    -116.189
  O       34.444      82.422    -115.888
  O       35.251      80.962    -113.934
  H       33.775      82.690    -115.231
  H       33.815      79.117    -117.981
  H       34.976      80.457    -118.109
  H       33.270      80.784    -117.683
  H       41.457      77.852    -112.073
  H       39.787      77.565    -112.500
  H       40.238      77.772    -110.824

 3  4  5  6  7  8  9  10  11  12  23  26  30  31 0
 6-311+G(2d,p)
 ****
 33  35  36  37  38 0
 6-311+G(2d,p)
 ****
 1  2  13  14  15  16  17  18  19  20  21  22  24  25 0
 3-21G
 ****
 27  28  29  32  34  39  40  41  42  43  44  45  46  47  48  49 0
 3-21G
 ****


