%nproc=1
%NoSave
%Mem=1900MB
#P OB98/GEN NMR

erre ene a

0 1
  C     -176.568    1097.924     304.584
  O     -175.777    1098.801     305.366
  H     -177.303    1098.513     304.036
  H     -177.097    1097.219     305.234
  H     -175.938    1097.383     303.870
  P     -174.642    1098.125     306.273
  C     -175.983    1099.013     308.309
  O     -174.711    1098.855     307.703
  C     -175.830    1099.347     309.788
  O     -175.013    1098.355     310.457
  C     -175.190    1100.697     310.077
  O     -176.147    1101.740     310.004
  C     -174.664    1100.487     311.484
  O     -175.703    1100.651     312.470
  C     -174.186    1099.032     311.437
  N     -169.456    1100.074     312.881
  C     -170.650    1100.326     313.509
  N     -170.587    1101.023     314.671
  N     -171.818    1099.961     313.034
  C     -171.732    1099.318     311.842
  C     -170.603    1098.989     311.133
  C     -169.322    1099.372     311.677
  O     -168.221    1099.116     311.203
  N     -170.921    1098.311     309.985
  C     -172.239    1098.264     309.984
  N     -172.783    1098.878     311.087
  O     -173.276    1098.673     305.647
  O     -174.663    1096.627     306.320
  H     -175.311    1100.650     313.363
  H     -172.577    1098.003     305.762
  H     -168.588    1100.369     313.291
  H     -172.853    1097.805     309.218
  H     -174.334    1098.507     312.392
  H     -173.887    1101.206     311.741
  H     -169.791    1101.599     314.896
  H     -174.347    1100.880     309.401
  H     -171.463    1101.229     315.136
  H     -176.832    1099.292     310.244
  H     -176.552    1098.085     308.201
  H     -176.522    1099.827     307.793
  P     -175.655    1103.157     309.409
  C     -177.608    1103.970     310.928
  O     -176.797    1104.224     309.791
  O     -175.843    1102.973     307.827
  O     -174.255    1103.541     309.767
  H     -175.334    1103.662     307.350
  H     -178.314    1104.765     311.048
  H     -176.991    1103.907     311.800
  H     -178.131    1103.046     310.794

 6  7  8  9  10  11  12  13  14  15  26  29  33  34 0
 6-311+G(2d,p)
 ****
 36  38  39  40  41 0
 6-311+G(2d,p)
 ****
 1  2  3  4  5  16  17  18  19  20  21  22  23  24  25 0
 3-21G
 ****
 27  28  30  31  32  35  37  42  43  44  45  46  47 0
 3-21G
 ****
 48  49 0
 3-21G
 ****


