%nproc=1
%NoSave
%Mem=1900MB
#P OB98/GEN NMR

erre ene a

0 1
  C       80.063     -74.528    -119.989
  O       79.569     -74.872    -118.691
  P       78.159     -74.252    -118.244
  C       78.576     -73.651    -115.754
  O       77.948     -74.527    -116.677
  C       78.292     -74.067    -114.303
  O       76.926     -74.549    -114.162
  C       79.208     -75.185    -113.797
  O       79.381     -75.020    -112.384
  C       78.378     -76.430    -114.041
  O       78.840     -77.535    -113.266
  C       76.988     -75.907    -113.682
  N       73.025     -78.846    -112.636
  C       73.918     -78.218    -111.788
  N       73.699     -78.370    -110.464
  N       74.933     -77.504    -112.201
  C       75.003     -77.413    -113.551
  C       74.187     -77.993    -114.495
  C       73.082     -78.799    -114.023
  O       72.270     -79.389    -114.728
  N       74.597     -77.686    -115.768
  C       75.664     -76.928    -115.591
  N       75.928     -76.705    -114.267
  O       77.100     -75.233    -118.940
  O       77.955     -72.839    -118.682
  H       78.125     -78.208    -113.262
  H       76.668     -74.776    -119.683
  H       72.267     -79.392    -112.263
  H       76.276     -76.521    -116.381
  H       76.816     -75.895    -112.597
  H       78.429     -76.710    -115.101
  H       72.907     -78.861    -110.080
  H       80.190     -75.230    -114.279
  H       74.314     -77.886    -109.821
  H       78.395     -73.186    -113.660
  H       78.229     -72.626    -115.911
  H       79.652     -73.633    -115.959
  P       80.493     -73.969    -111.907
  C       81.856     -75.784    -110.646
  O       81.131     -74.573    -110.567
  O       79.634     -72.723    -111.385
  O       81.471     -73.575    -112.963
  H       80.158     -71.905    -111.440
  H       82.926     -75.563    -110.597
  H       81.640     -76.333    -111.567
  H       81.584     -76.412    -109.793
  H       81.005     -75.009    -120.151
  H       80.189     -73.467    -120.053
  H       79.365     -74.850    -120.733

 3  4  5  6  7  8  9  10  11  12  23  26  30  31 0
 6-311+G(2d,p)
 ****
 33  35  36  37  38 0
 6-311+G(2d,p)
 ****
 1  2  13  14  15  16  17  18  19  20  21  22  24  25 0
 3-21G
 ****
 27  28  29  32  34  39  40  41  42  43  44  45  46  47  48  49 0
 3-21G
 ****


