%nproc=1
%NoSave
%Mem=1900MB
#P OB98/GEN NMR

erre ene a

0 1
  C     -196.671     -21.983     295.526
  O     -197.306     -22.940     294.706
  H     -197.308     -21.788     296.394
  H     -196.543     -21.051     294.971
  H     -195.700     -22.339     295.878
  P     -196.427     -23.740     293.636
  C     -197.199     -22.550     291.477
  O     -196.133     -22.761     292.394
  C     -196.684     -22.309     290.057
  O     -196.272     -20.931     289.918
  C     -195.464     -23.171     289.723
  O     -195.775     -24.460     289.219
  C     -194.759     -22.324     288.666
  O     -195.255     -22.620     287.347
  C     -195.119     -20.887     289.063
  N     -192.697     -16.475     289.956
  C     -193.702     -16.744     289.043
  N     -194.070     -15.714     288.251
  N     -194.262     -17.916     288.919
  C     -193.720     -18.870     289.708
  C     -192.709     -18.727     290.636
  C     -192.139     -17.407     290.818
  O     -191.260     -17.113     291.625
  N     -192.389     -19.926     291.225
  C     -193.142     -20.804     290.588
  N     -194.022     -20.198     289.719
  O     -197.470     -24.787     293.007
  O     -195.231     -24.457     294.189
  H     -196.119     -22.176     287.245
  H     -196.999     -25.598     292.747
  H     -192.322     -15.544     290.026
  H     -193.126     -21.875     290.754
  H     -195.395     -20.287     288.186
  H     -193.687     -22.528     288.651
  H     -193.614     -14.817     288.246
  H     -194.799     -23.256     290.588
  H     -194.668     -15.915     287.443
  H     -197.501     -22.474     289.341
  H     -197.744     -21.673     291.832
  H     -197.889     -23.398     291.497
  P     -194.946     -25.744     289.683
  C     -193.125     -25.609     287.793
  O     -193.444     -25.590     289.170
  O     -195.532     -26.907     288.758
  O     -195.041     -26.082     291.134
  H     -196.201     -27.432     289.240
  H     -192.069     -25.491     287.670
  H     -193.633     -24.808     287.298
  H     -193.431     -26.542     287.369

 6  7  8  9  10  11  12  13  14  15  26  29  33  34 0
 6-311+G(2d,p)
 ****
 36  38  39  40  41 0
 6-311+G(2d,p)
 ****
 1  2  3  4  5  16  17  18  19  20  21  22  23  24  25 0
 3-21G
 ****
 27  28  30  31  32  35  37  42  43  44  45  46  47 0
 3-21G
 ****
 48  49 0
 3-21G
 ****


