%nproc=1
%NoSave
%Mem=1900MB
#P OB98/GEN NMR

erre ene a

0 1
  C      312.188      51.580    -470.952
  O      312.569      50.695    -469.912
  H      311.127      51.829    -470.856
  H      312.776      52.499    -470.862
  H      312.382      51.131    -471.930
  P      311.951      49.217    -469.959
  C      311.277      48.912    -467.458
  O      312.200      48.592    -468.497
  C      312.004      49.583    -466.289
  O      313.198      48.813    -465.978
  C      312.444      51.020    -466.584
  O      312.264      51.810    -465.401
  C      313.923      50.888    -466.899
  O      314.635      52.085    -466.648
  C      314.314      49.724    -465.984
  N      319.415      49.997    -466.246
  C      318.495      50.767    -465.619
  N      317.158      50.616    -465.594
  C      316.787      49.512    -466.277
  C      317.604      48.634    -466.965
  C      318.984      48.911    -466.947
  N      319.919      48.160    -467.613
  N      316.847      47.642    -467.563
  C      315.603      47.925    -467.245
  N      315.517      49.043    -466.464
  O      313.005      48.437    -470.885
  O      310.560      49.109    -470.483
  H      315.590      51.930    -466.840
  H      312.826      48.640    -471.827
  H      318.896      51.620    -465.068
  H      314.728      47.351    -467.550
  H      314.518      50.040    -464.956
  H      314.052      50.626    -467.952
  H      311.884      51.471    -467.410
  H      311.354      49.534    -465.407
  H      310.798      47.990    -467.118
  H      320.880      48.466    -467.598
  H      319.603      47.393    -468.187
  H      310.513      49.587    -467.859
  P      310.756      52.274    -465.059
  C      310.917      54.793    -465.658
  O      310.786      53.823    -464.629
  O      310.431      51.501    -463.692
  O      309.773      51.925    -466.134
  H      309.576      51.043    -463.763
  H      310.922      55.772    -465.227
  H      310.094      54.707    -466.337
  H      311.833      54.631    -466.186

 6  7  8  9  10  11  12  13  14  15  25  28  32  33  34  35 0
 6-311+G(2d,p)
 ****
 36  39  40 0
 6-311+G(2d,p)
 ****
 1  2  3  4  5  16  17  18  19  20  21  22  23  24 0
 3-21G
 ****
 26  27  29  30  31  37  38  41  42  43  44  45  46  47 0
 3-21G
 ****
 48 0
 3-21G
 ****


