%nproc=1
%NoSave
%Mem=1900MB
#P OB98/GEN NMR

erre ene a

0 1
  C      448.377     367.343      56.506
  O      447.096     367.217      55.915
  P      446.142     366.042      56.446
  C      443.928     367.403      56.345
  O      444.687     366.316      55.830
  C      442.768     367.767      55.412
  O      443.305     368.360      54.203
  C      441.900     366.584      55.001
  O      440.535     367.034      54.932
  C      442.378     366.248      53.600
  O      441.379     365.575      52.842
  C      442.754     367.644      53.082
  N      443.705     367.586      51.971
  C      443.180     367.448      50.679
  O      441.953     367.303      50.533
  N      444.029     367.415      49.610
  C      445.311     367.414      49.803
  N      446.122     367.382      48.715
  C      445.925     367.432      51.156
  C      445.066     367.536      52.178
  O      445.958     366.405      58.005
  O      446.684     364.659      56.255
  H      440.939     364.918      53.427
  H      445.856     365.594      58.542
  H      446.999     367.385      51.265
  H      445.430     367.578      53.212
  H      441.869     368.186      52.735
  H      443.265     365.594      53.656
  H      441.965     365.738      55.700
  H      442.161     368.537      55.910
  H      445.681     367.361      47.802
  H      444.582     368.276      56.437
  H      447.131     367.375      48.775
  H      443.554     367.140      57.339
  P      439.424     366.227      55.759
  C      438.093     368.424      55.658
  O      438.059     367.015      55.499
  O      439.784     366.676      57.266
  O      439.399     364.739      55.649
  H      439.202     366.197      57.896
  H      437.140     368.837      55.323
  H      438.903     368.854      55.076
  H      438.235     368.682      56.732
  H      448.898     368.162      56.057
  H      448.931     366.441      56.352
  H      448.270     367.521      57.556

 3  4  5  6  7  8  9  10  11  12  13  21  23  27  28  29  30  32 0
 6-311+G(2d,p)
 ****
 34  35 0
 6-311+G(2d,p)
 ****
 1  2  14  15  16  17  18  19  20  22  24  25  26 0
 3-21G
 ****
 31  33  36  37  38  39  40  41  42  43  44  45  46 0
 3-21G
 ****


