%nproc=1
%NoSave
%Mem=1900MB
#P OB98/GEN NMR

erre ene a

0 1
  C     -141.889       0.079     107.884
  O     -142.940       0.572     107.078
  P     -142.702       1.758     106.026
  C     -143.574       3.494     107.713
  O     -142.480       3.084     106.906
  C     -143.987       4.932     107.404
  O     -145.218       5.249     108.110
  C     -142.947       5.995     107.793
  O     -143.055       7.038     106.818
  C     -143.453       6.469     109.139
  O     -142.924       7.737     109.509
  C     -144.970       6.424     108.912
  N     -145.715       6.403     110.167
  C     -146.069       7.641     110.712
  O     -145.689       8.687     110.174
  N     -146.794       7.672     111.872
  C     -147.051       6.565     112.496
  N     -147.782       6.655     113.642
  C     -146.591       5.245     112.024
  C     -145.941       5.237     110.855
  O     -143.739       1.880     104.960
  O     -141.235       1.471     105.458
  H     -143.400       8.432     109.003
  H     -141.256       0.735     104.796
  H     -146.775       4.355     112.604
  H     -145.566       4.318     110.431
  H     -145.298       7.294     108.327
  H     -143.166       5.750     109.918
  H     -141.924       5.610     107.836
  H     -144.204       4.999     106.329
  H     -148.091       7.576     113.920
  H     -143.262       3.435     108.760
  H     -148.106       5.849     114.156
  H     -144.417       2.809     107.578
  P     -141.767       7.581     106.032
  C     -141.884       9.822     107.260
  O     -141.085       8.694     106.958
  O     -142.019       8.003     104.621
  O     -140.723       6.364     106.097
  H     -140.021       6.503     105.433
  H     -141.439      10.358     108.103
  H     -142.904       9.523     107.529
  H     -141.921      10.487     106.392
  H     -142.258      -0.705     108.511
  H     -141.504       0.871     108.492
  H     -141.109      -0.302     107.259

 3  4  5  6  7  8  9  10  11  12  13  23  27  28  29  30  32 0
 6-311+G(2d,p)
 ****
 34  35 0
 6-311+G(2d,p)
 ****
 1  2  14  15  16  17  18  19  20  21  22  24  25  26 0
 3-21G
 ****
 31  33  36  37  38  39  40  41  42  43  44  45  46 0
 3-21G
 ****


