%nproc=1
%NoSave
%Mem=1900MB
#P OB98/GEN NMR

erre ene a

0 1
  C     -381.869     -61.959     361.770
  O     -382.337     -61.328     360.607
  H     -380.965     -62.519     361.532
  H     -382.613     -62.665     362.149
  H     -381.626     -61.217     362.542
  P     -383.674     -60.437     360.696
  C     -382.444     -58.301     361.540
  O     -383.160     -58.924     360.461
  C     -381.434     -57.301     360.993
  O     -380.358     -57.973     360.296
  C     -381.996     -56.309     359.965
  O     -382.813     -55.304     360.542
  C     -380.698     -55.755     359.401
  O     -380.117     -54.827     360.334
  C     -379.844     -57.048     359.299
  N     -379.902     -57.659     357.944
  C     -378.858     -57.335     357.085
  O     -377.953     -56.583     357.432
  N     -378.888     -57.857     355.798
  C     -379.897     -58.599     355.426
  N     -379.858     -59.084     354.157
  C     -381.020     -58.943     356.318
  C     -380.964     -58.445     357.550
  O     -384.521     -60.654     361.914
  O     -384.443     -60.719     359.316
  H     -380.796     -54.160     360.541
  H     -385.284     -60.197     359.331
  H     -381.839     -59.542     355.939
  H     -381.760     -58.649     358.256
  H     -378.805     -56.844     359.534
  H     -380.824     -55.228     358.461
  H     -382.522     -56.844     359.161
  H     -380.983     -56.781     361.854
  H     -379.079     -58.836     353.578
  H     -381.959     -59.093     362.127
  H     -380.640     -59.612     353.747
  H     -383.157     -57.764     362.183
  P     -384.059     -54.802     359.650
  C     -385.891     -56.287     360.774
  O     -385.372     -54.989     360.562
  O     -384.204     -55.941     358.535
  O     -383.907     -53.429     359.048
  H     -383.770     -55.662     357.683
  H     -386.758     -56.227     361.398
  H     -385.150     -56.894     361.250
  H     -386.158     -56.722     359.834

 6  7  8  9  10  11  12  13  14  15  16  26  30  31  32  33  35 0
 6-311+G(2d,p)
 ****
 37  38 0
 6-311+G(2d,p)
 ****
 1  2  3  4  5  17  18  19  20  21  22  23  24  25 0
 3-21G
 ****
 27  28  29  34  36  39  40  41  42  43  44  45  46 0
 3-21G
 ****


