%nproc=1
%NoSave
%Mem=1900MB
#P OB98/GEN NMR

erre ene a

0 1
  C     -284.279    -489.775    -238.995
  O     -282.892    -489.839    -239.263
  H     -284.472    -488.925    -238.334
  H     -284.611    -490.689    -238.498
  H     -284.848    -489.633    -239.922
  P     -282.356    -490.879    -240.356
  C     -280.252    -489.393    -240.206
  O     -280.770    -490.696    -240.433
  C     -278.798    -489.295    -240.677
  O     -278.032    -490.378    -240.067
  C     -278.620    -489.417    -242.213
  O     -277.468    -488.645    -242.565
  C     -278.356    -490.905    -242.350
  O     -277.890    -491.262    -243.625
  C     -277.404    -491.108    -241.152
  N     -277.157    -492.494    -240.778
  C     -275.876    -492.998    -240.965
  O     -274.930    -492.345    -241.427
  N     -275.688    -494.308    -240.607
  C     -276.628    -495.127    -240.071
  O     -276.397    -496.293    -239.735
  C     -277.978    -494.543    -239.899
  C     -278.170    -493.272    -240.244
  O     -283.067    -490.860    -241.671
  O     -282.518    -492.300    -239.623
  H     -283.309    -492.752    -239.958
  H     -277.018    -490.837    -243.780
  H     -274.759    -494.679    -240.738
  H     -278.751    -495.169    -239.482
  H     -279.141    -492.807    -240.123
  H     -276.449    -490.607    -241.355
  H     -279.291    -491.464    -242.197
  H     -279.489    -489.055    -242.772
  H     -278.370    -488.351    -240.309
  H     -280.301    -489.187    -239.124
  H     -280.868    -488.656    -240.731
  P     -277.521    -487.344    -243.489
  C     -275.273    -486.792    -242.335
  O     -276.058    -486.669    -243.515
  O     -278.615    -486.379    -243.127
  O     -277.715    -487.899    -244.989
  H     -278.160    -487.212    -245.528
  H     -274.331    -486.305    -242.481
  H     -275.110    -487.828    -242.122
  H     -275.787    -486.336    -241.515

 6  7  8  9  10  11  12  13  14  15  16  27  31  32  33  34  35 0
 6-311+G(2d,p)
 ****
 36  37 0
 6-311+G(2d,p)
 ****
 1  2  3  4  5  17  18  19  20  21  22  23  24  25 0
 3-21G
 ****
 26  28  29  30  38  39  40  41  42  43  44  45 0
 3-21G
 ****


