%nproc=1
%NoSave
%Mem=1900MB
#P OB98/GEN NMR

erre ene a

0 1
  C      155.153    -747.129     155.589
  O      155.968    -745.972     155.821
  P      156.538    -745.736     157.304
  C      157.007    -747.784     158.836
  O      157.416    -747.012     157.710
  C      158.095    -748.800     159.203
  O      158.342    -749.730     158.117
  C      159.440    -748.172     159.521
  O      159.501    -747.715     160.868
  C      160.373    -749.363     159.342
  O      160.332    -750.198     160.512
  C      159.752    -750.089     158.141
  N      163.782    -750.758     155.156
  C      163.482    -751.312     156.385
  N      164.387    -752.181     156.891
  N      162.391    -751.043     157.056
  C      161.576    -750.173     156.419
  C      161.756    -749.555     155.203
  C      162.977    -749.854     154.477
  O      163.302    -749.383     153.385
  N      160.708    -748.734     154.891
  C      159.875    -748.865     155.908
  N      160.362    -749.718     156.867
  O      155.226    -745.893     158.216
  O      157.190    -744.403     157.505
  H      160.823    -751.016     160.290
  H      155.324    -745.369     159.029
  H      164.642    -751.003     154.681
  H      158.913    -748.368     155.985
  H      159.817    -751.179     158.225
  H      161.418    -749.058     159.204
  H      165.220    -752.473     156.408
  H      159.694    -747.377     158.801
  H      164.170    -752.618     157.782
  H      157.746    -749.372     160.071
  H      156.072    -748.303     158.620
  H      156.795    -747.107     159.669
  P      159.498    -746.126     161.118
  C      157.594    -744.509     161.824
  O      157.960    -745.684     161.126
  O      160.060    -745.549     159.733
  O      160.315    -745.680     162.281
  H      160.562    -744.719     159.894
  H      156.542    -744.276     161.591
  H      158.220    -743.666     161.527
  H      157.678    -744.675     162.907
  H      154.850    -747.152     154.563
  H      154.287    -747.087     156.216
  H      155.714    -748.012     155.815

 3  4  5  6  7  8  9  10  11  12  23  26  30  31 0
 6-311+G(2d,p)
 ****
 33  35  36  37  38 0
 6-311+G(2d,p)
 ****
 1  2  13  14  15  16  17  18  19  20  21  22  24  25 0
 3-21G
 ****
 27  28  29  32  34  39  40  41  42  43  44  45  46  47  48  49 0
 3-21G
 ****


