%nproc=1
%NoSave
%Mem=1900MB
#P OB98/GEN NMR

erre ene a

0 1
  C     -125.830      47.376     332.520
  O     -126.880      47.912     333.336
  P     -127.604      49.303     332.995
  C     -130.071      48.527     332.843
  O     -129.098      49.271     333.581
  C     -131.169      47.970     333.760
  O     -130.702      46.810     334.479
  C     -131.670      48.940     334.819
  O     -132.536      49.921     334.240
  C     -132.354      47.987     335.788
  O     -133.687      47.647     335.336
  C     -131.437      46.744     335.711
  N     -130.521      46.656     336.860
  C     -130.879      45.746     337.861
  O     -131.926      45.094     337.773
  N     -130.034      45.597     338.938
  C     -128.982      46.351     339.055
  N     -128.182      46.163     340.138
  C     -128.637      47.394     338.066
  C     -129.449      47.485     337.001
  O     -127.527      49.713     331.569
  O     -126.870      50.386     333.938
  H     -134.120      48.503     335.114
  H     -126.874      51.253     333.496
  H     -127.761      48.025     338.203
  H     -129.256      48.236     336.235
  H     -132.025      45.821     335.667
  H     -132.453      48.404     336.801
  H     -130.837      49.417     335.318
  H     -132.007      47.643     333.107
  H     -128.446      45.428     340.786
  H     -129.547      47.689     332.351
  H     -127.348      46.689     340.307
  H     -130.505      49.180     332.080
  P     -132.831      51.276     335.043
  C     -132.031      52.839     333.182
  O     -133.135      52.425     333.972
  O     -131.860      51.636     336.122
  O     -134.291      51.005     335.694
  H     -134.354      51.484     336.539
  H     -132.418      53.297     332.264
  H     -131.375      51.999     332.922
  H     -131.456      53.596     333.738
  H     -125.497      46.447     332.933
  H     -125.013      48.067     332.491
  H     -126.196      47.215     331.528

 3  4  5  6  7  8  9  10  11  12  13  23  27  28  29  30  32 0
 6-311+G(2d,p)
 ****
 34  35 0
 6-311+G(2d,p)
 ****
 1  2  14  15  16  17  18  19  20  21  22  24  25  26 0
 3-21G
 ****
 31  33  36  37  38  39  40  41  42  43  44  45  46 0
 3-21G
 ****


