%nproc=1
%NoSave
%Mem=1900MB
#P OB98/GEN NMR

erre ene a

0 1
  C      459.095     517.119     -89.354
  O      460.062     516.379     -90.074
  H      458.217     516.489     -89.200
  H      458.799     518.005     -89.923
  H      459.494     517.416     -88.379
  P      461.429     517.144     -90.426
  C      460.590     517.673     -92.822
  O      461.588     517.058     -92.022
  C      461.223     518.665     -93.793
  O      461.772     519.796     -93.085
  C      462.355     518.087     -94.637
  O      461.849     517.390     -95.760
  C      463.114     519.351     -95.020
  O      462.489     520.027     -96.130
  C      463.009     520.191     -93.740
  N      467.935     521.078     -93.083
  C      467.091     521.446     -94.111
  N      467.664     522.105     -95.148
  N      465.814     521.184     -94.134
  C      465.392     520.491     -93.048
  C      466.128     520.085     -91.955
  C      467.538     520.407     -91.934
  O      468.324     520.168     -91.024
  N      465.341     519.423     -91.048
  C      464.146     519.396     -91.607
  N      464.131     520.018     -92.829
  O      462.562     516.144     -89.891
  O      461.573     518.504     -89.833
  H      461.596     520.313     -95.868
  H      463.338     516.665     -89.609
  H      468.912     521.323     -93.119
  H      463.267     518.943     -91.166
  H      462.939     521.262     -93.952
  H      464.137     519.126     -95.325
  H      468.650     522.036     -95.343
  H      463.004     517.444     -94.027
  H      467.052     522.357     -95.916
  H      460.422     519.047     -94.438
  H      459.888     518.205     -92.172
  H      460.045     516.900     -93.375
  P      462.372     515.890     -96.003
  C      464.956     516.167     -95.919
  O      463.798     516.018     -96.727
  O      461.417     515.350     -97.166
  O      462.334     515.014     -94.801
  H      461.456     514.377     -97.211
  H      465.821     516.239     -96.545
  H      465.052     515.319     -95.274
  H      464.868     517.056     -95.330

 6  7  8  9  10  11  12  13  14  15  26  29  33  34 0
 6-311+G(2d,p)
 ****
 36  38  39  40  41 0
 6-311+G(2d,p)
 ****
 1  2  3  4  5  16  17  18  19  20  21  22  23  24  25 0
 3-21G
 ****
 27  28  30  31  32  35  37  42  43  44  45  46  47 0
 3-21G
 ****
 48  49 0
 3-21G
 ****


