%nproc=1
%NoSave
%Mem=1900MB
#P OB98/GEN NMR

erre ene a

0 1
  C     -943.801    -276.128    -193.975
  O     -942.656    -276.662    -194.608
  H     -943.879    -276.563    -192.974
  H     -944.702    -276.386    -194.541
  H     -943.716    -275.045    -193.886
  P     -942.345    -276.134    -196.096
  C     -939.788    -276.592    -195.976
  O     -941.032    -276.910    -196.587
  C     -938.818    -277.765    -196.151
  O     -939.108    -278.794    -195.176
  C     -938.921    -278.449    -197.501
  O     -938.259    -277.737    -198.529
  C     -938.274    -279.796    -197.198
  O     -936.850    -279.723    -197.269
  C     -938.722    -280.054    -195.751
  N     -939.933    -285.015    -195.659
  C     -938.737    -284.376    -195.651
  N     -938.501    -283.049    -195.662
  C     -939.653    -282.364    -195.654
  C     -940.945    -282.869    -195.661
  C     -941.066    -284.269    -195.664
  N     -942.276    -284.934    -195.698
  N     -941.872    -281.845    -195.689
  C     -941.163    -280.735    -195.707
  N     -939.819    -280.999    -195.673
  O     -941.833    -274.640    -195.853
  O     -943.507    -276.181    -197.035
  H     -936.628    -279.539    -198.207
  H     -942.557    -274.009    -196.024
  H     -937.868    -285.016    -195.631
  H     -941.571    -279.736    -195.734
  H     -937.906    -280.457    -195.132
  H     -938.610    -280.563    -197.897
  H     -939.973    -278.620    -197.765
  H     -937.797    -277.399    -195.967
  H     -939.946    -276.404    -194.909
  H     -939.389    -275.689    -196.443
  H     -942.286    -285.924    -195.764
  H     -943.124    -284.376    -195.815
  P     -939.005    -277.601    -199.937
  C     -937.864    -275.327    -200.554
  O     -938.070    -276.698    -200.885
  O     -940.252    -276.652    -199.632
  O     -939.422    -278.896    -200.548
  H     -941.014    -276.930    -200.172
  H     -937.222    -274.877    -201.282
  H     -937.410    -275.258    -199.588
  H     -938.805    -274.817    -200.544

 6  7  8  9  10  11  12  13  14  15  25  28  32  33  34  35 0
 6-311+G(2d,p)
 ****
 36  37  40 0
 6-311+G(2d,p)
 ****
 1  2  3  4  5  16  17  18  19  20  21  22  23  24 0
 3-21G
 ****
 26  27  29  30  31  38  39 41  42  43  44  45  46  47  48 0
 3-21G
 ****


