%nproc=1
%NoSave
%Mem=1900MB
#P OB98/GEN NMR

erre ene a

0 1
  C     -385.294     687.624    -497.543
  O     -384.207     688.043    -496.735
  H     -385.065     687.784    -498.599
  H     -385.465     686.559    -497.372
  H     -386.198     688.176    -497.271
  P     -383.806     689.594    -496.814
  C     -382.337     690.822    -498.576
  O     -383.363     689.868    -498.333
  C     -381.701     690.576    -499.938
  O     -380.983     689.327    -499.936
  C     -382.692     690.494    -501.096
  O     -383.109     691.778    -501.537
  C     -381.829     689.789    -502.143
  O     -380.944     690.745    -502.765
  C     -381.025     688.801    -501.289
  N     -381.312     684.307    -503.738
  C     -380.592     685.430    -503.982
  N     -380.548     686.575    -503.267
  C     -381.354     686.493    -502.195
  C     -382.130     685.420    -501.800
  C     -382.098     684.278    -502.633
  N     -382.888     683.170    -502.406
  N     -382.834     685.721    -500.642
  C     -382.490     686.962    -500.361
  N     -381.594     687.464    -501.260
  O     -382.431     689.651    -495.996
  O     -384.821     690.540    -496.256
  H     -380.412     691.137    -502.046
  H     -382.613     689.934    -495.082
  H     -379.962     685.398    -504.867
  H     -382.876     687.521    -499.524
  H     -379.991     688.709    -501.630
  H     -382.423     689.328    -502.944
  H     -383.542     689.848    -500.843
  H     -380.967     691.381    -500.111
  H     -381.571     690.738    -497.789
  H     -383.135     682.667    -503.253
  H     -383.637     683.312    -501.734
  H     -382.773     691.825    -498.527
  P     -384.479     691.870    -502.365
  C     -385.116     692.124    -504.854
  O     -384.067     691.964    -503.915
  O     -384.998     693.349    -502.022
  O     -385.498     690.840    -502.024
  H     -385.903     693.301    -501.649
  H     -384.707     692.172    -505.841
  H     -385.648     693.028    -504.644
  H     -385.786     691.292    -504.786

 6  7  8  9  10  11  12  13  14  15  25  28  32  33  34  35 0
 6-311+G(2d,p)
 ****
 36  39  40 0
 6-311+G(2d,p)
 ****
 1  2  3  4  5  16  17  18  19  20  21  22  23  24 0
 3-21G
 ****
 26  27  29  30  31  37  38  41  42  43  44  45  46  47  48 0
 3-21G
 ****


