%nproc=1
%NoSave
%Mem=1900MB
#P OB98/GEN NMR

erre ene a

0 1
  C      305.971     328.249    -482.234
  O      305.282     327.377    -481.327
  P      304.153     326.396    -481.918
  C      305.407     324.161    -481.614
  O      304.315     324.975    -481.197
  C      305.912     323.292    -480.458
  O      306.796     324.031    -479.582
  C      304.798     322.753    -479.578
  O      304.106     321.688    -480.227
  C      305.581     322.341    -478.327
  O      306.184     321.052    -478.509
  C      306.684     323.442    -478.275
  N      306.446     324.442    -477.254
  C      307.565     325.129    -476.783
  O      308.697     324.851    -477.194
  N      307.388     326.116    -475.832
  C      306.194     326.365    -475.379
  N      306.082     327.349    -474.434
  C      304.986     325.662    -475.835
  C      305.182     324.706    -476.756
  O      304.034     326.350    -483.404
  O      302.806     326.968    -481.236
  H      305.448     320.445    -478.703
  H      302.060     326.803    -481.836
  H      304.019     325.904    -475.441
  H      304.357     324.134    -477.142
  H      307.653     322.979    -478.062
  H      304.948     322.298    -477.446
  H      304.106     323.571    -479.332
  H      306.486     322.450    -480.895
  H      306.935     327.816    -474.136
  H      306.207     324.786    -481.993
  H      305.198     327.652    -474.061
  H      305.069     323.538    -482.462
  P      302.758     321.163    -479.528
  C      300.895     322.018    -481.120
  O      301.685     320.922    -480.691
  O      302.189     322.474    -478.775
  O      302.955     320.035    -478.575
  H      301.752     322.213    -477.956
  H      300.459     321.767    -482.096
  H      301.510     322.916    -481.254
  H      300.089     322.218    -480.405
  H      306.685     328.834    -481.693
  H      305.266     328.898    -482.710
  H      306.476     327.666    -482.976

 3  4  5  6  7  8  9  10  11  12  13  23  27  28  29  30  32 0
 6-311+G(2d,p)
 ****
 34  35 0
 6-311+G(2d,p)
 ****
 1  2  14  15  16  17  18  19  20  21  22  24  25  26 0
 3-21G
 ****
 31  33  36  37  38  39  40  41  42  43  44  45  46 0
 3-21G
 ****


