%nproc=1
%NoSave
%Mem=1900MB
#P OB98/GEN NMR

erre ene a

0 1
  C      206.083      44.659      67.286
  O      204.816      45.259      67.485
  P      203.658      44.483      68.267
  C      202.554      43.631      66.118
  O      203.180      43.261      67.339
  C      202.087      42.404      65.336
  O      203.207      41.492      65.173
  C      200.950      41.616      66.001
  O      200.139      41.090      64.946
  C      201.689      40.478      66.693
  O      200.851      39.368      66.977
  C      202.780      40.203      65.666
  N      205.942      36.223      65.106
  C      204.871      36.629      64.387
  N      204.064      37.686      64.616
  C      204.460      38.357      65.713
  C      205.511      38.045      66.559
  C      206.291      36.928      66.209
  N      207.404      36.521      66.907
  N      205.560      38.941      67.614
  C      204.559      39.773      67.402
  N      203.907      39.496      66.232
  O      202.550      45.339      68.783
  O      204.426      43.746      69.467
  H      201.393      38.669      67.387
  H      204.236      44.203      70.310
  H      204.637      36.032      63.513
  H      204.265      40.581      68.057
  H      202.410      39.621      64.813
  H      202.108      40.836      67.640
  H      200.345      42.208      66.698
  H      201.789      42.733      64.332
  H      203.283      44.185      65.519
  H      207.963      35.789      66.495
  H      207.834      37.169      67.565
  H      201.704      44.294      66.324
  P      198.592      40.757      65.213
  C      199.109      38.254      65.373
  O      198.557      39.381      66.030
  O      197.713      40.812      64.010
  O      198.165      41.847      66.311
  H      197.190      41.911      66.335
  H      198.372      37.849      64.674
  H      199.352      37.490      66.119
  H      200.017      38.520      64.829
  H      206.716      45.332      66.746
  H      205.965      43.754      66.727
  H      206.526      44.437      68.235

 3  4  5  6  7  8  9  10  11  12  22  25  29  30  31  32 0
 6-311+G(2d,p)
 ****
 33  36  37 0
 6-311+G(2d,p)
 ****
 1  2  13  14  15  16  17  18  19  20  21  23  24  26 0
 3-21G
 ****
 27  28  34  35  38  39  40  41  42  43  44  45  46  47  48 0
 3-21G
 ****


