%nproc=1
%NoSave
%Mem=1900MB
#P OB98/GEN NMR

erre ene a

0 1
  C      160.129      34.704     401.732
  O      160.011      33.301     401.836
  P      160.016      32.570     403.260
  C      157.493      32.107     403.508
  O      158.598      32.890     403.949
  C      156.687      31.602     404.712
  O      157.523      30.683     405.480
  C      156.242      32.739     405.653
  O      154.844      32.750     405.946
  C      157.160      32.558     406.851
  O      156.676      33.151     408.040
  C      157.357      31.039     406.866
  N      158.494      30.629     407.687
  C      158.523      29.306     408.115
  O      157.669      28.467     407.841
  N      159.556      28.966     408.943
  C      160.475      29.824     409.469
  O      161.316      29.471     410.285
  C      160.371      31.219     409.012
  C      159.418      31.550     408.139
  O      161.196      32.858     404.124
  O      159.854      31.024     402.872
  H      157.315      32.962     408.754
  H      159.043      30.808     402.378
  H      159.588      28.010     409.261
  H      161.080      31.923     409.420
  H      159.316      32.570     407.784
  H      156.467      30.526     407.229
  H      158.114      33.047     406.618
  H      156.425      33.719     405.200
  H      155.826      31.048     404.326
  H      157.869      31.251     402.946
  H      156.866      32.698     402.832
  P      153.894      34.033     405.839
  C      153.366      34.413     403.321
  O      154.173      34.743     404.433
  O      153.916      34.943     407.022
  O      152.436      33.401     405.642
  H      151.766      34.005     406.011
  H      153.953      34.553     402.409
  H      152.504      35.085     403.290
  H      153.022      33.376     403.369
  H      160.104      34.989     400.701
  H      161.056      35.017     402.166
  H      159.317      35.170     402.250

 3  4  5  6  7  8  9  10  11  12  13  23  28  29  30  31  32 0
 6-311+G(2d,p)
 ****
 33  34 0
 6-311+G(2d,p)
 ****
 1  2  14  15  16  17  18  19  20  21  22  24  25  26  27 0
 3-21G
 ****
 35  36  37  38  39  40  41  42  43  44  45 0
 3-21G
 ****


