%nproc=1
%NoSave
%Mem=1900MB
#P OB98/GEN NMR

erre ene a

0 1
  C      -10.287     183.952     -57.637
  O       -9.422     183.042     -56.988
  P       -9.986     182.084     -55.837
  C       -9.228     182.629     -53.442
  O      -10.124     182.958     -54.498
  C       -7.840     183.200     -53.728
  O       -7.929     184.604     -54.047
  C       -6.877     183.108     -52.550
  O       -6.383     181.792     -52.403
  C       -5.828     184.143     -52.946
  O       -4.892     183.581     -53.879
  C       -6.689     185.216     -53.630
  N       -5.010     189.793     -52.120
  C       -4.440     188.827     -52.874
  N       -4.938     187.614     -53.201
  C       -6.144     187.435     -52.641
  C       -6.836     188.312     -51.819
  C       -6.230     189.557     -51.579
  N       -6.828     190.572     -50.865
  N       -8.034     187.751     -51.412
  C       -8.056     186.558     -51.970
  N       -6.968     186.352     -52.770
  O       -9.267     180.787     -55.674
  O      -11.511     181.837     -56.263
  H       -4.271     183.028     -53.370
  H      -11.655     180.882     -56.410
  H       -3.459     189.064     -53.277
  H       -8.840     185.823     -51.840
  H       -6.209     185.606     -54.536
  H       -5.257     184.510     -52.091
  H       -7.379     183.438     -51.633
  H       -7.430     182.680     -54.602
  H       -9.172     181.538     -53.366
  H       -6.369     191.470     -50.878
  H       -7.835     190.532     -50.720
  H       -9.616     183.030     -52.502
  P       -5.554     181.394     -51.092
  C       -3.064     180.932     -51.497
  O       -4.057     181.924     -51.309
  O       -5.672     179.970     -50.660
  O       -6.123     182.389     -49.972
  H       -6.094     181.948     -49.103
  H       -2.801     180.491     -50.530
  H       -2.174     181.403     -51.925
  H       -3.415     180.150     -52.175
  H       -9.738     184.504     -58.371
  H      -10.699     184.628     -56.917
  H      -11.079     183.413     -58.114

 3  4  5  6  7  8  9  10  11  12  22  25  29  30  31  32 0
 6-311+G(2d,p)
 ****
 33  36  37 0
 6-311+G(2d,p)
 ****
 1  2  13  14  15  16  17  18  19  20  21  23  24  26 0
 3-21G
 ****
 27  28  34  35  38  39  40  41  42  43  44  45  46  47  48 0
 3-21G
 ****


