%nproc=1
%NoSave
%Mem=1900MB
#P OB98/GEN NMR

erre ene a

0 1
  C     -317.931    -347.675    -574.965
  O     -317.227    -346.983    -575.981
  P     -318.047    -346.553    -577.298
  C     -316.235    -344.777    -578.010
  O     -316.960    -345.961    -578.319
  C     -315.633    -344.183    -579.285
  O     -316.672    -343.921    -580.244
  C     -314.914    -342.852    -579.083
  O     -313.629    -343.025    -578.500
  C     -314.903    -342.314    -580.499
  O     -313.829    -342.907    -581.262
  C     -316.265    -342.778    -581.042
  N     -317.291    -341.735    -581.029
  C     -317.282    -340.865    -582.112
  O     -316.472    -340.942    -583.040
  N     -318.229    -339.874    -582.087
  C     -319.113    -339.634    -581.075
  O     -319.917    -338.709    -581.081
  C     -319.049    -340.568    -579.946
  C     -318.154    -341.558    -579.968
  O     -318.828    -345.270    -576.748
  O     -318.918    -347.638    -577.830
  H     -318.348    -344.837    -576.021
  H     -314.068    -343.842    -581.385
  H     -318.250    -339.238    -582.871
  H     -319.737    -340.411    -579.116
  H     -318.087    -342.260    -579.140
  H     -316.161    -343.157    -582.064
  H     -314.752    -341.217    -580.538
  H     -315.513    -342.198    -578.438
  H     -314.946    -344.927    -579.724
  H     -315.426    -345.023    -577.306
  H     -316.914    -344.066    -577.531
  P     -313.058    -341.789    -577.648
  C     -311.564    -343.571    -576.431
  O     -311.665    -342.279    -577.021
  O     -314.068    -341.766    -576.406
  O     -312.990    -340.504    -578.416
  H     -314.276    -342.659    -576.073
  H     -310.516    -343.853    -576.402
  H     -312.113    -344.316    -577.012
  H     -311.964    -343.536    -575.413
  H     -317.266    -347.895    -574.157
  H     -318.324    -348.588    -575.362
  H     -318.735    -347.065    -574.609

 3  4  5  6  7  8  9  10  11  12  13  24  28  29  30  31  32 0
 6-311+G(2d,p)
 ****
 33  34 0
 6-311+G(2d,p)
 ****
 1  2  14  15  16  17  18  19  20  21  22  23  25  26  27 0
 3-21G
 ****
 35  36  37  38  39  40  41  42  43  44  45 0
 3-21G
 ****


