%nproc=1
%NoSave
%Mem=1900MB
#P OB98/GEN NMR

erre ene a

0 1
  C      -63.585      47.880      53.466
  O      -64.838      47.411      53.009
  H      -62.935      47.019      53.647
  H      -63.703      48.436      54.400
  H      -63.125      48.517      52.707
  P      -65.957      48.523      52.718
  C      -67.144      50.272      54.192
  O      -66.312      49.118      54.169
  C      -68.051      50.251      55.424
  O      -69.082      49.251      55.221
  C      -67.311      49.903      56.718
  O      -67.845      50.681      57.788
  C      -67.648      48.438      56.937
  O      -67.566      48.059      58.308
  C      -69.054      48.351      56.342
  N      -72.665      44.748      56.321
  C      -72.681      46.040      56.709
  N      -71.673      46.938      56.664
  C      -70.575      46.393      56.112
  C      -70.408      45.092      55.673
  C      -71.522      44.242      55.799
  N      -71.507      42.916      55.430
  N      -69.122      44.899      55.208
  C      -68.528      46.070      55.352
  N      -69.362      46.999      55.910
  O      -67.127      48.070      51.909
  O      -65.086      49.696      52.067
  H      -68.092      48.695      58.836
  H      -64.255      49.838      52.557
  H      -73.623      46.401      57.115
  H      -67.498      46.288      55.083
  H      -69.832      48.652      57.053
  H      -66.948      47.810      56.372
  H      -66.237      50.064      56.642
  H      -68.558      51.219      55.503
  H      -67.759      50.313      53.287
  H      -72.355      42.383      55.543
  H      -70.669      42.526      55.024
  H      -66.497      51.154      54.213
  P      -66.915      51.806      58.450
  C      -64.793      51.925      59.917
  O      -65.703      51.083      59.216
  O      -67.624      52.865      59.226
  O      -66.177      52.438      57.173
  H      -66.078      53.401      57.308
  H      -64.038      51.326      60.381
  H      -65.322      52.476      60.667
  H      -64.336      52.606      59.230

 6  7  8  9  10  11  12  13  14  15  25  28  32  33  34  35 0
 6-311+G(2d,p)
 ****
 36  39  40 0
 6-311+G(2d,p)
 ****
 1  2  3  4  5  16  17  18  19  20  21  22  23  24 0
 3-21G
 ****
 26  27  29  30  31  37  38  41  42  43  44  45  46  47 0
 3-21G
 ****
 48 0
 3-21G
 ****


