%nproc=1
%NoSave
%Mem=1900MB
#P OB98/GEN NMR

erre ene a

0 1
  C      -31.404     -44.619      46.780
  O      -31.199     -43.209      46.611
  P      -29.882     -42.584      45.938
  C      -27.331     -42.591      46.387
  O      -28.621     -42.963      46.858
  C      -26.231     -43.222      47.244
  O      -26.213     -42.614      48.560
  C      -26.399     -44.709      47.526
  O      -26.109     -45.507      46.391
  C      -25.436     -44.902      48.695
  O      -24.091     -45.108      48.238
  C      -25.539     -43.555      49.435
  N      -26.225     -43.660      50.714
  C      -25.537     -44.317      51.742
  O      -24.446     -44.843      51.523
  N      -26.117     -44.370      52.983
  C      -27.316     -43.909      53.161
  N      -27.830     -43.974      54.421
  C      -28.128     -43.333      52.071
  C      -27.525     -43.239      50.887
  O      -29.991     -41.122      45.638
  O      -29.649     -43.431      44.598
  H      -29.165     -42.888      43.948
  H      -23.501     -44.890      48.985
  H      -29.140     -42.998      52.251
  H      -28.044     -42.813      50.033
  H      -24.540     -43.133      49.595
  H      -25.702     -45.770      49.309
  H      -27.426     -44.899      47.865
  H      -25.266     -43.032      46.759
  H      -27.244     -44.367      55.148
  H      -27.242     -41.499      46.443
  H      -28.743     -43.624      54.666
  H      -27.230     -42.891      45.336
  P      -27.313     -46.390      45.797
  C      -28.897     -48.231      46.715
  O      -27.715     -47.476      46.906
  O      -26.607     -47.259      44.647
  O      -28.455     -45.594      45.255
  H      -27.210     -47.334      43.882
  H      -28.785     -49.192      47.227
  H      -29.097     -48.414      45.655
  H      -29.741     -47.693      47.156
  H      -32.350     -44.788      47.250
  H      -30.625     -45.022      47.393
  H      -31.390     -45.099      45.824

 3  4  5  6  7  8  9  10  11  12  13  24  27  28  29  30  32 0
 6-311+G(2d,p)
 ****
 34  35 0
 6-311+G(2d,p)
 ****
 1  2  14  15  16  17  18  19  20  21  22  23  25  26 0
 3-21G
 ****
 31  33  36  37  38  39  40  41  42  43  44  45  46 0
 3-21G
 ****


