%nproc=1
%NoSave
%Mem=1900MB
#P OB98/GEN NMR

erre ene a

0 1
  C      -91.189      33.445    -143.119
  O      -91.017      33.083    -141.742
  P      -91.196      34.116    -140.526
  C      -88.815      35.084    -140.211
  O      -90.128      35.301    -140.717
  C      -87.987      36.369    -140.283
  O      -87.813      36.779    -141.661
  C      -88.612      37.583    -139.611
  O      -88.555      37.508    -138.198
  C      -87.783      38.717    -140.213
  O      -86.556      38.907    -139.495
  C      -87.486      38.187    -141.630
  N      -88.198      38.912    -142.669
  C      -87.437      39.375    -143.746
  O      -86.215      39.235    -143.750
  N      -88.083      39.999    -144.785
  C      -89.355      40.237    -144.704
  N      -89.944      40.842    -145.771
  C      -90.168      39.887    -143.524
  C      -89.532      39.231    -142.555
  O      -91.149      33.478    -139.177
  O      -92.607      34.827    -140.780
  H      -92.976      35.133    -139.930
  H      -86.134      39.707    -139.866
  H      -91.217      40.140    -143.480
  H      -90.059      38.923    -141.658
  H      -86.409      38.236    -141.832
  H      -88.319      39.672    -140.198
  H      -89.653      37.681    -139.938
  H      -86.998      36.161    -139.853
  H      -89.359      41.058    -146.569
  H      -88.330      34.316    -140.824
  H      -90.931      41.050    -145.819
  H      -88.882      34.717    -139.182
  P      -89.843      36.913    -137.451
  C      -90.860      39.025    -136.336
  O      -90.945      38.075    -137.379
  O      -89.357      36.752    -135.933
  O      -90.334      35.615    -138.002
  H      -89.723      35.931    -135.556
  H      -91.316      39.958    -136.675
  H      -89.824      39.221    -136.050
  H      -91.413      38.657    -135.468
  H      -91.017      32.589    -143.737
  H      -90.492      34.215    -143.375
  H      -92.186      33.801    -143.272

 3  4  5  6  7  8  9  10  11  12  13  24  27  28  29  30  32 0
 6-311+G(2d,p)
 ****
 34  35 0
 6-311+G(2d,p)
 ****
 1  2  14  15  16  17  18  19  20  21  22  23  25  26 0
 3-21G
 ****
 31  33  36  37  38  39  40  41  42  43  44  45  46 0
 3-21G
 ****


