%nproc=1
%NoSave
%Mem=1900MB
#P OB98/GEN NMR

erre ene a

0 1
  C       47.902    -151.035    -147.207
  O       46.691    -151.792    -147.132
  P       46.169    -152.143    -145.654
  C       43.617    -152.489    -145.377
  O       44.851    -153.049    -145.800
  C       43.142    -151.391    -146.336
  O       42.820    -151.946    -147.646
  C       41.894    -150.643    -145.850
  O       42.024    -149.284    -146.288
  C       40.778    -151.310    -146.630
  O       39.604    -150.503    -146.661
  C       41.480    -151.510    -147.972
  N       39.435    -152.192    -152.537
  C       39.930    -151.046    -151.947
  N       39.926    -149.927    -152.703
  N       40.392    -151.002    -150.724
  C       40.370    -152.207    -150.101
  C       39.919    -153.412    -150.584
  C       39.382    -153.441    -151.928
  O       38.935    -154.428    -152.498
  N       40.091    -154.419    -149.662
  C       40.582    -153.796    -148.604
  N       40.820    -152.469    -148.837
  O       45.615    -150.739    -145.121
  O       47.229    -152.698    -144.760
  H       39.321    -150.357    -145.732
  H       46.268    -150.323    -144.530
  H       39.076    -152.166    -153.477
  H       40.805    -154.262    -147.658
  H       41.552    -150.576    -148.546
  H       40.521    -152.274    -146.176
  H       39.632    -149.902    -153.666
  H       41.738    -150.679    -144.768
  H       40.323    -149.082    -152.307
  H       43.966    -150.681    -146.477
  H       43.723    -152.064    -144.376
  H       42.872    -153.287    -145.290
  P       42.335    -148.167    -145.184
  C       43.849    -146.736    -146.717
  O       42.660    -146.805    -145.957
  O       43.761    -148.619    -144.604
  O       41.321    -148.074    -144.090
  H       43.784    -148.466    -143.642
  H       43.715    -146.002    -147.514
  H       44.103    -147.701    -147.166
  H       44.672    -146.412    -146.074
  H       48.151    -150.862    -148.233
  H       48.693    -151.579    -146.735
  H       47.768    -150.097    -146.709

 3  4  5  6  7  8  9  10  11  12  23  26  30  31 0
 6-311+G(2d,p)
 ****
 33  35  36  37  38 0
 6-311+G(2d,p)
 ****
 1  2  13  14  15  16  17  18  19  20  21  22  24  25 0
 3-21G
 ****
 27  28  29  32  34  39  40  41  42  43  44  45  46  47  48  49 0
 3-21G
 ****


