%nproc=1
%NoSave
%Mem=1900MB
#P OB98/GEN NMR

erre ene a

0 1
  C     -239.939    -393.011     377.393
  O     -238.601    -392.799     376.997
  H     -239.989    -392.998     378.485
  H     -240.284    -393.986     377.040
  H     -240.593    -392.224     377.004
  P     -238.287    -392.505     375.453
  C     -236.467    -390.678     375.563
  O     -236.745    -392.057     375.374
  C     -236.350    -390.347     377.053
  O     -235.583    -391.405     377.707
  C     -235.638    -389.014     377.348
  O     -236.214    -388.472     378.545
  C     -234.216    -389.494     377.597
  O     -233.428    -388.500     378.198
  C     -234.506    -390.754     378.413
  N     -233.355    -391.636     378.555
  C     -232.756    -391.709     379.809
  O     -233.162    -391.103     380.801
  N     -231.654    -392.518     379.894
  C     -231.102    -393.234     378.872
  O     -230.123    -393.959     379.007
  C     -231.758    -393.088     377.564
  C     -232.835    -392.308     377.466
  O     -239.243    -391.596     374.759
  O     -238.268    -393.963     374.787
  H     -239.130    -394.141     374.369
  H     -232.555    -388.865     378.460
  H     -231.209    -392.588     380.798
  H     -231.330    -393.620     376.726
  H     -233.345    -392.174     376.518
  H     -234.884    -390.494     379.406
  H     -233.733    -389.744     376.652
  H     -235.731    -388.289     376.535
  H     -237.356    -390.365     377.500
  H     -237.283    -390.099     375.118
  H     -235.530    -390.426     375.054
  P     -237.275    -387.268     378.540
  C     -238.318    -387.743     380.853
  O     -237.582    -386.824     380.055
  O     -238.510    -387.557     377.748
  O     -236.495    -386.009     377.927
  H     -237.115    -385.475     377.395
  H     -238.456    -387.334     381.832
  H     -237.779    -388.665     380.924
  H     -239.272    -387.921     380.403

 6  7  8  9  10  11  12  13  14  15  16  27  31  32  33  34  35 0
 6-311+G(2d,p)
 ****
 36  37 0
 6-311+G(2d,p)
 ****
 1  2  3  4  5  17  18  19  20  21  22  23  24  25 0
 3-21G
 ****
 26  28  29  30  38  39  40  41  42  43  44  45 0
 3-21G
 ****


