%nproc=1
%NoSave
%Mem=1900MB
#P OB98/GEN NMR

erre ene a

0 1
  C      -50.510     -41.821      48.477
  O      -50.624     -40.416      48.409
  H      -50.374     -42.112      49.523
  H      -49.636     -42.152      47.909
  H      -51.410     -42.310      48.092
  P      -51.108     -39.740      47.039
  C      -53.637     -40.069      47.442
  O      -52.569     -39.139      47.331
  C      -54.962     -39.389      47.093
  O      -55.218     -38.347      48.087
  C      -54.964     -38.720      45.703
  O      -56.280     -38.824      45.147
  C      -54.666     -37.278      46.062
  O      -55.045     -36.392      45.039
  C      -55.456     -37.126      47.359
  N      -55.038     -35.941      48.106
  C      -55.486     -34.713      47.634
  O      -56.191     -34.581      46.635
  N      -55.033     -33.611      48.308
  C      -54.111     -33.612      49.313
  O      -53.681     -32.593      49.830
  C      -53.630     -34.940      49.735
  C      -54.113     -36.028      49.128
  O      -51.020     -40.597      45.820
  O      -50.218     -38.413      46.915
  H      -54.909     -35.469      45.331
  H      -50.189     -38.109      45.988
  H      -55.358     -32.712      47.984
  H      -52.887     -34.980      50.521
  H      -53.769     -37.020      49.402
  H      -56.531     -37.064      47.157
  H      -53.591     -37.149      46.235
  H      -54.233     -39.154      45.018
  H      -55.777     -40.119      47.183
  H      -53.667     -40.437      48.475
  H      -53.459     -40.912      46.767
  P      -56.599     -39.776      43.894
  C      -58.151     -41.239      45.323
  O      -58.008     -40.527      44.099
  O      -55.474     -40.686      43.515
  O      -56.897     -38.756      42.691
  H      -56.421     -39.052      41.893
  H      -59.117     -41.698      45.358
  H      -58.049     -40.561      46.144
  H      -57.395     -41.994      45.387

 6  7  8  9  10  11  12  13  14  15  16  26  31  32  33  34  35 0
 6-311+G(2d,p)
 ****
 36  37 0
 6-311+G(2d,p)
 ****
 1  2  3  4  5  17  18  19  20  21  22  23  24  25 0
 3-21G
 ****
 27  28  29  30  38  39  40  41  42  43  44  45 0
 3-21G
 ****


