%nproc=1
%NoSave
%Mem=1900MB
#P OB98/GEN NMR

erre ene a

0 1
  C      -39.559     -37.498    -128.642
  O      -38.144     -37.493    -128.651
  H      -39.903     -38.462    -128.258
  H      -39.949     -37.366    -129.654
  H      -39.940     -36.707    -127.991
  P      -37.395     -36.180    -129.179
  C      -35.315     -37.703    -129.299
  O      -36.086     -36.699    -129.945
  C      -33.938     -37.802    -129.947
  O      -33.441     -36.491    -130.275
  C      -32.882     -38.458    -129.060
  O      -32.999     -39.870    -129.110
  C      -31.612     -37.938    -129.714
  O      -31.357     -38.670    -130.928
  C      -32.006     -36.487    -130.041
  N      -28.354     -33.934    -127.626
  C      -28.260     -34.885    -128.624
  N      -27.012     -35.235    -128.999
  N      -29.295     -35.454    -129.185
  C      -30.475     -35.056    -128.657
  C      -30.694     -34.135    -127.658
  C      -29.544     -33.470    -127.084
  O      -29.584     -32.609    -126.210
  N      -32.026     -34.041    -127.345
  C      -32.613     -34.875    -128.180
  N      -31.714     -35.527    -128.988
  O      -37.116     -35.118    -128.158
  O      -38.329     -35.648    -130.362
  H      -31.448     -39.615    -130.707
  H      -38.973     -34.993    -130.036
  H      -27.519     -33.545    -127.221
  H      -33.682     -35.041    -128.243
  H      -31.524     -36.121    -130.954
  H      -30.731     -38.038    -129.082
  H      -26.206     -35.047    -128.416
  H      -32.923     -38.080    -128.033
  H      -26.921     -35.966    -129.692
  H      -34.050     -38.349    -130.892
  H      -35.854     -38.650    -129.399
  H      -35.204     -37.473    -128.235
  P      -33.059     -40.745    -127.764
  C      -34.228     -42.642    -129.073
  O      -33.122     -42.267    -128.262
  O      -34.138     -40.355    -126.813
  O      -31.589     -40.642    -127.153
  H      -31.464     -39.866    -126.553
  H      -34.145     -43.677    -129.332
  H      -34.234     -42.050    -129.964
  H      -35.137     -42.481    -128.532

 6  7  8  9  10  11  12  13  14  15  26  29  33  34 0
 6-311+G(2d,p)
 ****
 36  38  39  40  41 0
 6-311+G(2d,p)
 ****
 1  2  3  4  5  16  17  18  19  20  21  22  23  24  25 0
 3-21G
 ****
 27  28  30  31  32  35  37  42  43  44  45  46  47 0
 3-21G
 ****
 48  49 0
 3-21G
 ****


