%nproc=1
%NoSave
%Mem=1900MB
#P OB98/GEN NMR

erre ene a

0 1
  C      521.990     108.624     639.543
  O      522.432     109.950     639.352
  H      521.180     108.636     640.280
  H      522.803     108.004     639.922
  H      521.599     108.203     638.608
  P      523.617     110.217     638.308
  C      522.628     112.547     637.700
  O      523.735     111.834     638.240
  C      523.058     113.951     637.280
  O      524.293     113.905     636.511
  C      522.065     114.679     636.381
  O      520.920     115.145     637.056
  C      522.953     115.829     635.907
  O      523.100     116.789     636.958
  C      524.289     115.078     635.637
  N      524.429     114.649     634.249
  C      524.952     115.601     633.349
  O      525.274     116.743     633.749
  N      525.103     115.260     632.032
  C      524.728     114.096     631.615
  N      524.873     113.807     630.288
  C      524.139     113.067     632.512
  C      524.027     113.419     633.798
  O      523.508     109.529     636.989
  O      524.952     109.843     639.112
  H      523.704     117.494     636.611
  H      525.726     109.975     638.507
  H      523.815     112.116     632.111
  H      523.600     112.713     634.511
  H      525.141     115.698     635.920
  H      522.540     116.340     635.024
  H      521.791     114.062     635.515
  H      523.268     114.515     638.197
  H      525.274     114.534     629.702
  H      521.843     112.593     638.463
  H      524.549     112.947     629.871
  H      522.235     112.015     636.819
  P      519.497     114.859     636.362
  C      518.227     115.832     638.438
  O      518.449     115.880     637.029
  O      519.072     113.436     636.948
  O      519.512     114.889     634.856
  H      519.287     112.718     636.307
  H      517.506     116.574     638.711
  H      519.147     116.023     638.951
  H      517.862     114.863     638.709

 6  7  8  9  10  11  12  13  14  15  16  26  30  31  32  33  35 0
 6-311+G(2d,p)
 ****
 37  38 0
 6-311+G(2d,p)
 ****
 1  2  3  4  5  17  18  19  20  21  22  23  24  25 0
 3-21G
 ****
 27  28  29  34  36  39  40  41  42  43  44  45  46 0
 3-21G
 ****


