%nproc=1
%NoSave
%Mem=1900MB
#P OB98/GEN NMR

erre ene a

0 1
  C      -58.185     -66.538     -41.587
  O      -59.162     -65.533     -41.434
  P      -60.140     -65.155     -42.648
  C      -59.277     -62.769     -43.079
  O      -59.336     -64.105     -43.562
  C      -58.250     -61.967     -43.873
  O      -56.959     -62.635     -43.880
  C      -58.594     -61.805     -45.347
  O      -59.729     -61.033     -45.669
  C      -57.260     -61.346     -45.916
  O      -57.057     -59.950     -45.702
  C      -56.263     -62.174     -45.064
  N      -55.688     -63.284     -45.822
  C      -54.504     -63.011     -46.497
  O      -53.946     -61.914     -46.481
  N      -53.987     -64.042     -47.234
  C      -54.547     -65.277     -47.394
  O      -54.051     -66.141     -48.103
  C      -55.807     -65.501     -46.666
  C      -56.314     -64.512     -45.927
  O      -61.506     -64.711     -42.248
  O      -60.126     -66.476     -43.557
  H      -56.186     -59.720     -46.082
  H      -59.247     -66.728     -43.893
  H      -53.135     -63.863     -47.741
  H      -56.272     -66.473     -46.762
  H      -57.242     -64.651     -45.386
  H      -55.439     -61.536     -44.716
  H      -57.195     -61.524     -46.995
  H      -58.790     -62.804     -45.763
  H      -58.110     -61.001     -43.383
  H      -58.980     -62.783     -42.024
  H      -60.272     -62.312     -43.141
  P      -60.521     -61.162     -47.054
  C      -59.854     -58.743     -47.704
  O      -59.909     -60.101     -48.086
  O      -62.008     -61.264     -46.970
  O      -59.938     -62.548     -47.626
  H      -60.630     -62.986     -48.159
  H      -59.454     -58.160     -48.537
  H      -59.195     -58.616     -46.840
  H      -60.854     -58.369     -47.467
  H      -57.636     -66.644     -40.675
  H      -57.515     -66.267     -42.377
  H      -58.662     -67.466     -41.826

 3  4  5  6  7  8  9  10  11  12  13  23  28  29  30  31  32 0
 6-311+G(2d,p)
 ****
 33  34 0
 6-311+G(2d,p)
 ****
 1  2  14  15  16  17  18  19  20  21  22  24  25  26  27 0
 3-21G
 ****
 35  36  37  38  39  40  41  42  43  44  45 0
 3-21G
 ****


