%nproc=1
%NoSave
%Mem=1900MB
#P OB98/GEN NMR

erre ene a

0 1
  C      662.841     340.281      70.579
  O      663.080     339.022      71.190
  P      663.198     337.742      70.238
  C      660.938     336.612      70.840
  O      662.352     336.565      70.938
  C      660.336     335.209      70.979
  O      660.670     334.438      69.788
  C      660.832     334.416      72.198
  O      659.731     333.623      72.643
  C      661.920     333.548      71.586
  O      662.293     332.446      72.387
  C      661.280     333.220      70.243
  N      665.161     329.959      69.465
  C      664.354     330.171      70.533
  N      663.340     331.054      70.669
  C      663.184     331.759      69.530
  C      663.932     331.679      68.381
  C      664.970     330.723      68.360
  N      665.786     330.520      67.279
  N      663.482     332.585      67.429
  C      662.483     333.200      68.020
  N      662.243     332.730      69.284
  O      664.710     337.268      70.439
  O      662.868     337.991      68.794
  H      663.077     332.001      72.028
  H      665.097     336.966      69.599
  H      664.568     329.545      71.406
  H      661.910     334.001      67.576
  H      660.495     332.456      70.335
  H      662.820     334.161      71.445
  H      661.173     335.057      73.021
  H      659.236     335.305      71.001
  H      660.655     337.015      69.858
  H      666.625     329.972      67.434
  H      665.765     331.225      66.537
  H      660.533     337.281      71.603
  P      658.667     334.258      73.665
  C      658.863     332.741      75.729
  O      658.161     333.004      74.528
  O      657.419     334.509      72.696
  O      659.136     335.463      74.408
  H      657.187     333.707      72.188
  H      658.361     331.931      76.275
  H      658.872     333.639      76.373
  H      659.886     332.428      75.511
  H      662.786     341.039      71.333
  H      661.917     340.246      70.040
  H      663.639     340.507      69.903

 3  4  5  6  7  8  9  10  11  12  22  25  29  30  31  32 0
 6-311+G(2d,p)
 ****
 33  36  37 0
 6-311+G(2d,p)
 ****
 1  2  13  14  15  16  17  18  19  20  21  23  24  26 0
 3-21G
 ****
 27  28  34  35  38  39  40  41  42  43  44  45  46  47  48 0
 3-21G
 ****


