%nproc=1
%NoSave
%Mem=1900MB
#P OB98/GEN NMR

erre ene a

0 1
  C     -744.267     561.430    -105.004
  O     -745.162     561.129    -106.054
  H     -744.173     560.555    -104.356
  H     -744.637     562.274    -104.408
  H     -743.283     561.675    -105.421
  P     -745.470     562.303    -107.103
  C     -744.826     560.966    -109.197
  O     -744.461     562.021    -108.324
  C     -743.786     559.837    -109.128
  O     -743.769     559.315    -107.764
  C     -744.086     558.662    -110.064
  O     -742.867     558.156    -110.609
  C     -744.709     557.620    -109.140
  O     -744.544     556.293    -109.648
  C     -743.975     557.896    -107.818
  N     -743.962     554.861    -103.720
  C     -743.005     555.192    -104.597
  N     -743.079     556.019    -105.667
  C     -744.321     556.578    -105.737
  C     -745.397     556.329    -104.919
  C     -745.189     555.425    -103.871
  N     -746.186     555.060    -102.973
  N     -746.494     557.064    -105.345
  C     -746.078     557.723    -106.402
  N     -744.770     557.457    -106.686
  O     -745.434     563.686    -106.548
  O     -746.881     561.842    -107.702
  H     -745.054     556.215    -110.469
  H     -746.888     560.885    -107.900
  H     -742.024     554.718    -104.440
  H     -746.689     558.407    -106.997
  H     -743.010     557.380    -107.767
  H     -745.789     557.816    -109.040
  H     -744.766     558.938    -110.881
  H     -742.783     560.255    -109.324
  H     -744.879     561.334    -110.233
  H     -745.951     554.414    -102.234
  H     -747.091     555.482    -103.056
  H     -745.807     560.599    -108.919
  P     -742.288     558.833    -111.937
  C     -739.762     559.069    -111.421
  O     -741.018     559.742    -111.551
  O     -743.298     559.466    -112.839
  O     -741.601     557.579    -112.677
  H     -741.736     557.673    -113.654
  H     -739.003     559.778    -111.164
  H     -739.512     558.599    -112.349
  H     -739.833     558.327    -110.653

 6  7  8  9  10  11  12  13  14  15  25  28  32  33  34  35 0
 6-311+G(2d,p)
 ****
 36  39  40 0
 6-311+G(2d,p)
 ****
 1  2  3  4  5  16  17  18  19  20  21  22  23  24 0
 3-21G
 ****
 26  27  29  30  31  37  38  41  42  43  44  45  46  47 0
 3-21G
 ****
 48 0
 3-21G
 ****


