%nproc=1
%NoSave
%Mem=1900MB
#P OB98/GEN NMR

erre ene a

0 1
  C     -312.967     146.343    -368.044
  O     -311.646     145.896    -367.809
  H     -312.967     147.437    -368.053
  H     -313.633     145.996    -367.250
  H     -313.318     145.982    -369.014
  P     -311.432     144.307    -367.723
  C     -309.326     142.842    -367.974
  O     -309.838     144.125    -367.627
  C     -307.870     142.954    -368.431
  O     -307.855     143.333    -369.832
  C     -307.065     144.004    -367.658
  O     -305.739     143.523    -367.451
  C     -307.037     145.196    -368.597
  O     -305.916     146.044    -368.367
  C     -307.043     144.514    -369.965
  N     -305.876     148.218    -373.273
  C     -305.111     147.452    -372.470
  N     -305.504     146.470    -371.629
  C     -306.835     146.285    -371.702
  C     -307.744     146.994    -372.471
  C     -307.219     148.012    -373.283
  N     -307.991     148.818    -374.083
  N     -309.028     146.538    -372.240
  C     -308.894     145.565    -371.358
  N     -307.588     145.388    -370.992
  O     -312.106     143.505    -368.786
  O     -311.904     143.998    -366.227
  H     -306.009     146.839    -368.929
  H     -311.554     144.654    -365.597
  H     -304.042     147.654    -372.501
  H     -309.705     144.974    -370.949
  H     -306.038     144.214    -370.292
  H     -307.950     145.796    -368.463
  H     -307.522     144.253    -366.697
  H     -307.402     141.964    -368.363
  H     -309.928     142.400    -368.775
  H     -307.531     149.517    -374.649
  H     -308.993     148.666    -374.121
  H     -309.396     142.201    -367.089
  P     -305.297     143.109    -365.969
  C     -303.473     141.629    -364.893
  O     -303.877     142.359    -366.047
  O     -306.333     142.435    -365.139
  O     -304.888     144.524    -365.326
  H     -305.167     144.537    -364.385
  H     -302.518     141.180    -365.071
  H     -304.193     140.865    -364.684
  H     -303.404     142.293    -364.057

 6  7  8  9  10  11  12  13  14  15  25  28  32  33  34  35 0
 6-311+G(2d,p)
 ****
 36  39  40 0
 6-311+G(2d,p)
 ****
 1  2  3  4  5  16  17  18  19  20  21  22  23  24 0
 3-21G
 ****
 26  27  29  30  31  37  38  41  42  43  44  45  46  47 0
 3-21G
 ****
 48 0
 3-21G
 ****


