%nproc=1
%NoSave
%Mem=1900MB
#P OB98/GEN NMR

erre ene a

0 1
  C     -357.807     -19.715    -269.861
  O     -356.624     -19.727    -270.635
  H     -357.552     -19.961    -268.824
  H     -358.509     -20.461    -270.237
  H     -358.266     -18.722    -269.885
  P     -356.779     -19.392    -272.198
  C     -354.656     -17.899    -272.131
  O     -355.302     -19.022    -272.722
  C     -353.136     -18.083    -272.169
  O     -352.759     -19.076    -271.169
  C     -352.600     -18.570    -273.521
  O     -351.347     -17.930    -273.778
  C     -352.359     -20.051    -273.285
  O     -351.400     -20.590    -274.191
  C     -351.913     -20.033    -271.827
  N     -350.263     -24.781    -272.096
  C     -349.924     -23.672    -272.845
  N     -349.000     -23.846    -273.816
  N     -350.443     -22.486    -272.653
  C     -351.327     -22.447    -271.631
  C     -351.760     -23.477    -270.826
  C     -351.194     -24.789    -271.060
  O     -351.472     -25.812    -270.453
  N     -352.700     -23.038    -269.923
  C     -352.836     -21.748    -270.185
  N     -352.022     -21.344    -271.209
  O     -357.538     -17.981    -272.206
  O     -357.492     -20.420    -273.008
  H     -351.301     -21.540    -273.992
  H     -358.094     -17.891    -273.003
  H     -349.843     -25.674    -272.290
  H     -353.504     -21.073    -269.665
  H     -350.868     -19.713    -271.712
  H     -353.298     -20.607    -273.404
  H     -348.532     -24.724    -274.001
  H     -353.281     -18.384    -274.355
  H     -348.727     -23.042    -274.373
  H     -352.665     -17.142    -271.871
  H     -354.988     -17.806    -271.090
  H     -354.932     -16.996    -272.680
  P     -351.338     -16.701    -274.807
  C     -350.472     -14.918    -273.125
  O     -350.235     -15.630    -274.326
  O     -352.724     -15.964    -274.495
  O     -351.248     -17.110    -276.241
  H     -353.349     -16.110    -275.226
  H     -349.657     -14.250    -272.940
  H     -350.559     -15.608    -272.312
  H     -351.379     -14.358    -273.216

 6  7  8  9  10  11  12  13  14  15  26  29  33  34 0
 6-311+G(2d,p)
 ****
 36  38  39  40  41 0
 6-311+G(2d,p)
 ****
 1  2  3  4  5  16  17  18  19  20  21  22  23  24  25 0
 3-21G
 ****
 27  28  30  31  32  35  37  42  43  44  45  46  47 0
 3-21G
 ****
 48  49 0
 3-21G
 ****


