%nproc=1
%NoSave
%Mem=1900MB
#P OB98/GEN NMR

erre ene a

0 1
  C       -0.589      13.134     -17.467
  O       -1.770      13.691     -18.002
  P       -2.587      14.822     -17.217
  C       -4.176      12.863     -16.686
  O       -3.573      14.058     -16.201
  C       -4.962      12.172     -15.566
  O       -4.019      11.723     -14.543
  C       -5.986      13.106     -14.889
  O       -7.313      12.581     -14.829
  C       -5.337      13.398     -13.545
  O       -6.244      13.837     -12.553
  C       -4.590      12.088     -13.270
  N       -3.579      12.229     -12.226
  C       -3.949      11.873     -10.933
  O       -5.056      11.443     -10.620
  N       -3.010      12.084      -9.961
  C       -1.811      12.710     -10.128
  O       -1.060      12.956      -9.194
  C       -1.491      13.100     -11.510
  C       -2.361      12.827     -12.485
  O       -3.260      15.837     -18.077
  O       -1.493      15.434     -16.220
  H       -6.835      13.093     -12.336
  H       -1.105      14.796     -15.596
  H       -3.266      11.831      -9.019
  H       -0.551      13.607     -11.672
  H       -2.152      13.102     -13.513
  H       -5.276      11.290     -12.981
  H       -4.611      14.206     -13.694
  H       -6.096      14.041     -15.451
  H       -5.452      11.293     -15.995
  H       -3.390      12.191     -17.039
  H       -4.821      13.093     -17.540
  P       -8.639      13.389     -15.220
  C       -8.839      14.456     -12.858
  O       -8.754      14.658     -14.253
  O       -9.877      12.563     -15.330
  O       -8.271      14.044     -16.635
  H       -9.084      14.155     -17.164
  H       -9.397      15.288     -12.417
  H       -7.831      14.448     -12.433
  H       -9.348      13.519     -12.616
  H       -0.202      12.401     -18.144
  H       -0.807      12.672     -16.527
  H        0.137      13.907     -17.324

 3  4  5  6  7  8  9  10  11  12  13  23  28  29  30  31  32 0
 6-311+G(2d,p)
 ****
 33  34 0
 6-311+G(2d,p)
 ****
 1  2  14  15  16  17  18  19  20  21  22  24  25  26  27 0
 3-21G
 ****
 35  36  37  38  39  40  41  42  43  44  45 0
 3-21G
 ****


