%nproc=1
%NoSave
%Mem=1900MB
#P OB98/GEN NMR

erre ene a

0 1
  C      270.113     123.462     -62.184
  O      270.010     123.412     -63.592
  H      270.567     124.416     -61.902
  H      270.745     122.650     -61.817
  H      269.121     123.400     -61.727
  P      269.435     122.082     -64.276
  C      267.013     122.683     -64.935
  O      268.361     122.553     -65.372
  C      266.052     122.285     -66.061
  O      264.752     122.045     -65.465
  C      265.900     123.385     -67.121
  O      266.135     122.919     -68.449
  C      264.532     123.981     -66.816
  O      263.890     124.584     -67.920
  C      263.771     122.803     -66.198
  N      262.670     123.202     -65.323
  C      261.759     124.128     -65.825
  O      261.793     124.616     -66.953
  N      260.752     124.489     -64.967
  C      260.578     124.038     -63.693
  O      259.652     124.394     -62.975
  C      261.585     123.079     -63.214
  C      262.570     122.713     -64.035
  O      268.946     121.032     -63.335
  O      270.651     121.549     -65.171
  H      264.436     125.344     -68.203
  H      271.085     120.801     -64.720
  H      260.080     125.152     -65.325
  H      261.482     122.707     -62.203
  H      263.330     122.006     -63.714
  H      263.359     122.162     -66.978
  H      264.660     124.762     -66.055
  H      266.663     124.162     -66.990
  H      266.393     121.342     -66.501
  H      266.850     123.727     -64.649
  H      266.845     122.042     -64.062
  P      267.580     122.670     -69.082
  C      267.109     120.093     -69.178
  O      267.555     121.264     -69.844
  O      268.735     122.927     -68.174
  O      267.651     123.750     -70.280
  H      268.588     124.024     -70.353
  H      267.165     119.259     -69.846
  H      266.096     120.228     -68.860
  H      267.729     119.909     -68.326

 6  7  8  9  10  11  12  13  14  15  16  26  31  32  33  34  35 0
 6-311+G(2d,p)
 ****
 36  37 0
 6-311+G(2d,p)
 ****
 1  2  3  4  5  17  18  19  20  21  22  23  24  25 0
 3-21G
 ****
 27  28  29  30  38  39  40  41  42  43  44  45 0
 3-21G
 ****


