%nproc=1
%NoSave
%Mem=1900MB
#P OB98/GEN NMR

erre ene a

0 1
  C      787.579    -893.511     361.846
  O      787.293    -894.811     362.334
  H      787.909    -893.591     360.810
  H      788.377    -893.061     362.436
  H      786.687    -892.881     361.886
  P      786.682    -894.911     363.812
  C      784.609    -896.461     363.497
  O      785.102    -895.131     363.629
  C      783.106    -896.491     363.793
  O      782.910    -896.201     365.197
  C      782.314    -895.451     362.993
  O      781.049    -896.011     362.643
  C      782.121    -894.321     363.987
  O      781.011    -893.481     363.695
  C      781.974    -895.101     365.296
  N      782.255    -894.281     366.475
  C      781.175    -893.701     367.128
  O      779.998    -893.901     366.832
  N      781.487    -892.871     368.165
  C      782.743    -892.551     368.592
  O      782.954    -891.781     369.516
  C      783.847    -893.181     367.862
  C      783.560    -894.001     366.850
  O      786.777    -893.411     364.359
  O      787.344    -895.891     364.719
  H      787.629    -893.261     364.814
  H      780.259    -894.061     363.454
  H      780.710    -892.451     368.652
  H      784.850    -892.931     368.160
  H      784.346    -894.471     366.280
  H      780.972    -895.531     365.377
  H      783.018    -893.691     364.014
  H      782.835    -895.121     362.091
  H      782.732    -897.501     363.611
  H      785.138    -897.111     364.210
  H      784.803    -896.811     362.477
  P      780.891    -896.621     361.160
  C      780.833    -899.061     362.098
  O      781.464    -898.121     361.248
  O      782.010    -895.801     360.366
  O      779.500    -896.501     360.627
  H      782.812    -895.631     360.894
  H      781.342    -900.000     362.032
  H      779.814    -899.187     361.797
  H      780.866    -898.708     363.107

 6  7  8  9  10  11  12  13  14  15  16  27  31  32  33  34  35 0
 6-311+G(2d,p)
 ****
 36  37 0
 6-311+G(2d,p)
 ****
 1  2  3  4  5  17  18  19  20  21  22  23  24  25 0
 3-21G
 ****
 26  28  29  30  38  39  40  41  42  43  44  45 0
 3-21G
 ****


