%nproc=1
%NoSave
%Mem=1900MB
#P OB98/GEN NMR

erre ene a

0 1
  C      -45.376      89.818    -117.343
  O      -45.739      91.183    -117.369
  H      -44.686      89.655    -116.511
  H      -44.871      89.553    -118.277
  H      -46.251      89.178    -117.205
  P      -47.000      91.631    -118.248
  C      -47.907      93.369    -116.569
  O      -47.340      93.148    -117.852
  C      -47.601      94.786    -116.067
  O      -46.232      94.849    -115.596
  C      -47.727      95.800    -117.211
  O      -48.098      97.093    -116.744
  C      -46.312      95.857    -117.766
  O      -46.048      97.053    -118.497
  C      -45.490      95.706    -116.485
  N      -40.513      96.016    -115.435
  C      -41.532      96.880    -115.089
  N      -41.180      97.982    -114.389
  N      -42.786      96.688    -115.414
  C      -42.982      95.585    -116.178
  C      -42.047      94.669    -116.605
  C      -40.672      94.871    -116.206
  O      -39.721      94.149    -116.500
  N      -42.621      93.691    -117.383
  C      -43.896      94.017    -117.430
  N      -44.168      95.153    -116.701
  O      -48.223      90.822    -117.600
  O      -46.889      91.372    -119.720
  H      -45.152      96.971    -118.874
  H      -48.934      90.700    -118.252
  H      -39.567      96.203    -115.145
  H      -44.663      93.467    -117.967
  H      -45.365      96.679    -115.993
  H      -46.182      95.019    -118.459
  H      -40.218      98.258    -114.271
  H      -48.442      95.476    -117.968
  H      -41.850      98.755    -114.384
  H      -48.243      95.032    -115.211
  H      -47.471      92.628    -115.889
  H      -48.985      93.196    -116.596
  P      -49.158      97.922    -117.616
  C      -50.574      99.107    -115.751
  O      -49.594      99.210    -116.769
  O      -50.458      96.984    -117.605
  O      -48.696      98.224    -119.002
  H      -50.564      96.548    -118.473
  H      -50.726     100.067    -115.304
  H      -50.242      98.415    -115.005
  H      -51.493      98.761    -116.175

 6  7  8  9  10  11  12  13  14  15  26  29  33  34 0
 6-311+G(2d,p)
 ****
 36  38  39  40  41 0
 6-311+G(2d,p)
 ****
 1  2  3  4  5  16  17  18  19  20  21  22  23  24  25 0
 3-21G
 ****
 27  28  30  31  32  35  37  42  43  44  45  46  47 0
 3-21G
 ****
 48  49 0
 3-21G
 ****


