%nproc=1
%NoSave
%Mem=1900MB
#P OB98/GEN NMR

erre ene a

0 1
  C      -17.127     553.557     101.244
  O      -18.063     552.634     100.689
  P      -19.488     552.298     101.322
  C      -20.781     552.927      99.127
  O      -20.497     551.952     100.127
  C      -21.518     552.339      97.911
  O      -20.578     551.616      97.074
  C      -22.569     551.325      98.362
  O      -23.848     551.759      98.784
  C      -22.604     550.284      97.241
  O      -23.622     550.552      96.278
  C      -21.215     550.409      96.608
  N      -20.025     545.573      95.444
  C      -21.046     546.360      94.949
  N      -21.889     545.777      94.072
  N      -21.230     547.605      95.306
  C      -20.370     548.038      96.247
  C      -19.334     547.341      96.831
  C      -19.097     545.982      96.390
  O      -18.205     545.243      96.786
  N      -18.686     548.099      97.776
  C      -19.346     549.236      97.790
  N      -20.372     549.252      96.872
  O      -19.971     553.244     102.367
  O      -19.249     550.868     102.034
  H      -23.698     549.775      95.698
  H      -19.827     550.844     102.825
  H      -19.915     544.629      95.120
  H      -19.119     550.085      98.425
  H      -21.288     550.496      95.515
  H      -22.818     549.288      97.650
  H      -21.874     544.793      93.851
  H      -22.153     550.796      99.234
  H      -22.758     546.283      93.880
  H      -21.931     553.134      97.285
  H      -19.820     553.351      98.822
  H      -21.363     553.742      99.555
  P      -25.024     550.836      99.354
  C      -25.305     552.245     101.471
  O      -25.935     551.728     100.316
  O      -24.284     549.860     100.389
  O      -25.776     550.054      98.323
  H      -24.850     549.090     100.599
  H      -26.066     552.564     102.184
  H      -24.689     553.113     101.195
  H      -24.672     551.492     101.944
  H      -16.255     553.596     100.626
  H      -16.853     553.239     102.228
  H      -17.572     554.529     101.295

 3  4  5  6  7  8  9  10  11  12  23  26  30  31 0
 6-311+G(2d,p)
 ****
 33  35  36  37  38 0
 6-311+G(2d,p)
 ****
 1  2  13  14  15  16  17  18  19  20  21  22  24  25 0
 3-21G
 ****
 27  28  29  32  34  39  40  41  42  43  44  45  46  47  48  49 0
 3-21G
 ****


