%nproc=1
%NoSave
%Mem=1900MB
#P OB98/GEN NMR

erre ene a

0 1
  C      850.110     186.313     260.598
  O      850.874     187.484     260.767
  P      850.432     188.593     261.855
  C      849.917     190.067     259.805
  O      849.461     189.607     261.082
  C      848.761     190.060     258.803
  O      848.181     188.730     258.706
  C      847.599     190.960     259.181
  O      847.827     192.356     259.196
  C      846.500     190.443     258.254
  O      846.635     191.002     256.939
  C      846.806     188.934     258.239
  N      845.849     188.156     259.035
  C      844.754     187.643     258.359
  O      844.580     187.795     257.145
  N      843.847     186.956     259.118
  C      843.885     186.793     260.472
  O      843.012     186.217     261.099
  C      845.059     187.374     261.145
  C      845.970     188.030     260.409
  O      851.555     189.234     262.596
  O      849.406     187.796     262.794
  H      846.278     191.906     256.987
  H      848.625     187.437     262.330
  H      843.038     186.593     258.645
  H      845.128     187.253     262.225
  H      846.850     188.475     260.887
  H      846.768     188.546     257.211
  H      845.501     190.710     258.624
  H      847.290     190.700     260.209
  H      849.166     190.311     257.814
  H      850.710     189.392     259.453
  H      850.347     191.072     259.898
  P      847.593     193.276     260.488
  C      845.442     194.217     259.375
  O      846.045     193.686     260.532
  O      848.592     194.355     260.744
  O      847.677     192.198     261.679
  H      848.038     192.631     262.474
  H      844.399     194.463     259.603
  H      845.449     193.470     258.569
  H      845.981     195.112     259.050
  H      850.555     185.703     259.839
  H      849.115     186.576     260.307
  H      850.080     185.770     261.520

 3  4  5  6  7  8  9  10  11  12  13  23  28  29  30  31  32 0
 6-311+G(2d,p)
 ****
 33  34 0
 6-311+G(2d,p)
 ****
 1  2  14  15  16  17  18  19  20  21  22  24  25  26  27 0
 3-21G
 ****
 35  36  37  38  39  40  41  42  43  44  45 0
 3-21G
 ****


