%nproc=1
%NoSave
%Mem=1900MB
#P OB98/GEN NMR

erre ene a

0 1
  C     -985.013    -554.657     541.618
  O     -984.942    -554.068     542.905
  H     -984.173    -555.346     541.495
  H     -984.947    -553.887     540.843
  H     -985.953    -555.216     541.508
  P     -986.083    -553.006     543.269
  C     -986.562    -554.000     545.615
  O     -986.086    -552.886     544.875
  C     -985.824    -554.104     546.962
  O     -984.444    -554.474     546.755
  C     -985.823    -552.807     547.767
  O     -987.025    -552.653     548.505
  C     -984.610    -553.008     548.672
  O     -984.938    -553.848     549.799
  C     -983.627    -553.742     547.730
  N     -979.016    -551.707     547.830
  C     -979.603    -552.616     548.669
  N     -978.862    -553.014     549.747
  N     -980.803    -553.104     548.510
  C     -981.435    -552.588     547.421
  C     -980.942    -551.688     546.502
  C     -979.595    -551.180     546.685
  O     -978.989    -550.413     545.939
  N     -981.868    -551.428     545.521
  C     -982.925    -552.139     545.859
  N     -982.708    -552.844     547.025
  O     -987.447    -553.786     542.961
  O     -986.014    -551.714     542.519
  H     -985.431    -553.325     550.463
  H     -988.124    -553.149     542.681
  H     -978.068    -551.380     548.003
  H     -983.862    -552.177     545.325
  H     -983.014    -554.489     548.259
  H     -984.224    -552.078     549.072
  H     -978.095    -552.447     550.112
  H     -985.641    -551.937     547.104
  H     -979.291    -553.672     550.379
  H     -986.305    -554.909     547.534
  H     -986.378    -554.923     545.044
  H     -987.637    -553.886     545.789
  P     -987.705    -551.185     548.522
  C     -990.107    -552.167     548.335
  O     -989.187    -551.381     549.100
  O     -987.946    -550.867     546.969
  O     -986.886    -550.130     549.206
  H     -988.093    -549.892     546.853
  H     -991.048    -552.209     548.842
  H     -989.720    -553.158     548.220
  H     -990.241    -551.722     547.371

 6  7  8  9  10  11  12  13  14  15  26  29  33  34 0
 6-311+G(2d,p)
 ****
 36  38  39  40  41 0
 6-311+G(2d,p)
 ****
 1  2  3  4  5  16  17  18  19  20  21  22  23  24  25 0
 3-21G
 ****
 27  28  30  31  32  35  37  42  43  44  45  46  47 0
 3-21G
 ****
 48  49 0
 3-21G
 ****


