%nproc=1
%NoSave
%Mem=1900MB
#P OB98/GEN NMR

erre ene a

0 1
  C      378.779       4.728      94.563
  O      380.012       5.432      94.733
  P      380.108       6.942      94.182
  C      381.661       6.516      92.148
  O      380.355       6.895      92.591
  C      381.617       6.011      90.700
  O      380.738       4.863      90.622
  C      381.068       7.029      89.682
  O      381.987       7.932      89.064
  C      380.562       6.098      88.581
  O      381.660       5.720      87.716
  C      380.058       4.865      89.338
  N      375.524       4.905      86.970
  C      376.798       4.908      86.502
  N      377.952       4.893      87.198
  C      377.704       4.864      88.516
  C      376.467       4.870      89.153
  C      375.328       4.890      88.311
  N      374.044       4.899      88.795
  N      376.617       4.844      90.521
  C      377.929       4.854      90.716
  N      378.631       4.856      89.535
  O      381.011       7.849      94.944
  O      378.584       7.433      94.272
  H      381.274       5.193      86.997
  H      378.576       8.377      94.546
  H      376.902       4.925      85.412
  H      378.406       4.870      91.692
  H      380.323       3.932      88.832
  H      379.813       6.574      87.947
  H      380.229       7.586      90.106
  H      382.625       5.694      90.393
  H      382.052       5.725      92.802
  H      373.290       4.959      88.126
  H      373.883       4.936      89.789
  H      382.311       7.389      92.281
  P      382.123       9.447      89.564
  C      381.335      10.698      87.389
  O      381.038      10.278      88.713
  O      383.510      10.007      89.515
  O      381.479       9.394      91.022
  H      380.515       9.241      91.029
  H      380.408      11.044      86.913
  H      381.736       9.866      86.798
  H      382.057      11.520      87.412
  H      378.869       3.745      94.977
  H      378.550       4.656      93.520
  H      377.995       5.255      95.065

 3  4  5  6  7  8  9  10  11  12  22  25  29  30  31  32 0
 6-311+G(2d,p)
 ****
 33  36  37 0
 6-311+G(2d,p)
 ****
 1  2  13  14  15  16  17  18  19  20  21  23  24  26 0
 3-21G
 ****
 27  28  34  35  38  39  40  41  42  43  44  45  46  47  48 0
 3-21G
 ****


