%nproc=1
%NoSave
%Mem=1900MB
#P OB98/GEN NMR

erre ene a

0 1
  C     -691.454     457.500     454.297
  O     -690.275     456.757     454.051
  H     -691.761     457.995     453.372
  H     -691.276     458.271     455.052
  H     -692.257     456.836     454.629
  P     -689.534     456.071     455.300
  C     -688.025     453.989     455.575
  O     -688.925     454.704     454.735
  C     -687.448     452.790     454.832
  O     -688.445     451.755     454.704
  C     -687.005     453.114     453.414
  O     -685.771     453.814     453.417
  C     -686.969     451.727     452.797
  O     -685.771     451.035     453.155
  C     -688.200     451.070     453.457
  N     -689.385     451.105     452.603
  C     -689.797     449.874     452.073
  O     -689.182     448.843     452.342
  N     -690.888     449.860     451.235
  C     -691.516     450.958     450.968
  N     -692.594     450.862     450.133
  C     -691.129     452.271     451.513
  C     -690.062     452.274     452.307
  O     -690.328     455.920     456.555
  O     -688.234     456.985     455.515
  H     -685.786     450.958     454.128
  H     -688.426     457.716     456.129
  H     -691.686     453.161     451.262
  H     -689.704     453.193     452.754
  H     -688.001     450.019     453.704
  H     -687.026     451.773     451.713
  H     -687.781     453.692     452.898
  H     -686.609     452.386     455.424
  H     -692.818     449.950     449.775
  H     -688.588     453.658     456.454
  H     -693.207     451.638     449.919
  H     -687.217     454.645     455.916
  P     -685.171     454.403     452.049
  C     -683.046     455.797     451.618
  O     -684.141     455.552     452.501
  O     -686.178     454.805     451.024
  O     -684.198     453.232     451.558
  H     -684.708     452.465     451.183
  H     -682.432     456.576     452.019
  H     -683.420     456.094     450.660
  H     -682.466     454.904     451.513

 6  7  8  9  10  11  12  13  14  15  16  26  30  31  32  33  35 0
 6-311+G(2d,p)
 ****
 37  38 0
 6-311+G(2d,p)
 ****
 1  2  3  4  5  17  18  19  20  21  22  23  24  25 0
 3-21G
 ****
 27  28  29  34  36  39  40  41  42  43  44  45  46 0
 3-21G
 ****


