%nproc=1
%NoSave
%Mem=1900MB
#P OB98/GEN NMR

erre ene a

0 1
  C     -447.714     270.396     319.178
  O     -448.003     270.325     320.578
  P     -447.636     268.969     321.355
  C     -449.635     268.195     322.832
  O     -448.440     268.955     322.746
  C     -450.325     268.445     324.173
  O     -449.415     268.274     325.284
  C     -450.898     269.845     324.315
  O     -452.177     269.960     323.707
  C     -451.038     269.952     325.830
  O     -452.232     269.278     326.255
  C     -449.791     269.211     326.323
  N     -447.069     271.373     329.999
  C     -448.138     270.500     330.079
  N     -448.539     270.148     331.318
  N     -448.762     270.024     329.038
  C     -448.242     270.447     327.856
  C     -447.189     271.309     327.650
  C     -446.520     271.846     328.819
  O     -445.578     272.628     328.808
  N     -446.959     271.510     326.315
  C     -447.859     270.755     325.711
  N     -448.676     270.097     326.603
  O     -446.125     269.229     321.822
  O     -447.753     267.734     320.525
  H     -452.985     269.766     325.869
  H     -445.656     268.375     321.901
  H     -446.632     271.720     330.834
  H     -447.962     270.642     324.639
  H     -449.981     268.636     327.237
  H     -451.127     270.989     326.167
  H     -448.075     270.438     332.163
  H     -450.191     270.602     323.953
  H     -449.303     269.485     331.396
  H     -451.146     267.712     324.280
  H     -449.420     267.127     322.717
  H     -450.288     268.454     321.988
  P     -452.503     271.308     322.905
  C     -455.049     271.699     322.578
  O     -453.886     271.044     322.134
  O     -451.400     271.306     321.745
  O     -452.443     272.557     323.724
  H     -451.157     272.226     321.509
  H     -455.848     271.530     321.852
  H     -454.874     272.775     322.664
  H     -455.365     271.296     323.544
  H     -448.011     271.352     318.800
  H     -448.251     269.627     318.664
  H     -446.664     270.262     319.023

 3  4  5  6  7  8  9  10  11  12  23  26  30  31 0
 6-311+G(2d,p)
 ****
 33  35  36  37  38 0
 6-311+G(2d,p)
 ****
 1  2  13  14  15  16  17  18  19  20  21  22  24  25 0
 3-21G
 ****
 27  28  29  32  34  39  40  41  42  43  44  45  46  47  48  49 0
 3-21G
 ****


