%nproc=1
%NoSave
%Mem=1900MB
#P OB98/GEN NMR

erre ene a

0 1
  C     -131.595     138.272     -76.064
  O     -130.459     137.572     -75.600
  H     -131.275     138.993     -76.821
  H     -132.066     138.816     -75.243
  H     -132.315     137.586     -76.518
  P     -130.663     136.357     -74.576
  C     -130.239     138.134     -72.757
  O     -131.012     137.005     -73.151
  C     -129.876     138.023     -71.280
  O     -131.071     138.040     -70.466
  C     -129.146     136.734     -70.918
  O     -127.797     136.784     -71.338
  C     -129.355     136.709     -69.412
  O     -128.438     137.594     -68.748
  C     -130.804     137.242     -69.291
  N     -131.791     136.170     -69.145
  C     -132.308     135.984     -67.867
  O     -131.972     136.661     -66.899
  N     -133.201     134.954     -67.731
  C     -133.542     134.061     -68.705
  O     -134.169     133.029     -68.485
  C     -133.023     134.352     -70.049
  C     -132.172     135.369     -70.203
  O     -129.577     135.335     -74.557
  O     -132.061     135.718     -75.028
  H     -131.892     134.915     -75.557
  H     -127.541     137.267     -68.955
  H     -133.545     134.779     -66.798
  H     -133.323     133.704     -70.863
  H     -131.754     135.584     -71.179
  H     -130.896     137.910     -68.426
  H     -129.205     135.716     -68.987
  H     -129.661     135.874     -71.361
  H     -129.273     138.900     -71.010
  H     -130.837     139.037     -72.919
  H     -129.339     138.186     -73.377
  P     -127.069     135.493     -71.939
  C     -126.129     134.717     -69.684
  O     -126.976     134.392     -70.779
  O     -125.780     135.761     -72.642
  O     -128.146     134.863     -72.945
  H     -127.732     134.742     -73.820
  H     -126.142     133.917     -68.973
  H     -126.478     135.614     -69.217
  H     -125.130     134.864     -70.037

 6  7  8  9  10  11  12  13  14  15  16  27  31  32  33  34  35 0
 6-311+G(2d,p)
 ****
 36  37 0
 6-311+G(2d,p)
 ****
 1  2  3  4  5  17  18  19  20  21  22  23  24  25 0
 3-21G
 ****
 26  28  29  30  38  39  40  41  42  43  44  45 0
 3-21G
 ****


