%nproc=1
%NoSave
%Mem=1900MB
#P OB98/GEN NMR

erre ene a

0 1
  C      -73.015     -27.941       0.672
  O      -74.031     -27.804       1.645
  H      -72.172     -28.506       1.078
  H      -73.423     -28.483      -0.186
  H      -72.679     -26.955       0.340
  P      -73.599     -27.125       3.033
  C      -72.691     -29.296       4.121
  O      -72.387     -28.006       3.612
  C      -71.413     -30.010       4.540
  O      -70.596     -30.292       3.385
  C      -70.517     -29.214       5.482
  O      -70.986     -29.255       6.822
  C      -69.204     -29.968       5.324
  O      -69.227     -31.155       6.139
  C      -69.218     -30.351       3.837
  N      -65.285     -30.098       0.545
  C      -65.842     -31.138       1.206
  N      -66.875     -31.130       2.071
  C      -67.360     -29.887       2.225
  C      -66.898     -28.731       1.618
  C      -65.804     -28.865       0.747
  N      -65.234     -27.796       0.091
  N      -67.651     -27.643       2.003
  C      -68.554     -28.131       2.829
  N      -68.415     -29.483       3.000
  O      -74.814     -27.479       4.016
  O      -73.353     -25.655       2.976
  H      -68.399     -31.637       5.953
  H      -74.956     -26.731       4.625
  H      -65.398     -32.110       1.010
  H      -69.325     -27.548       3.318
  H      -68.878     -31.381       3.684
  H      -68.333     -29.382       5.625
  H      -70.388     -28.184       5.131
  H      -71.696     -30.970       4.992
  H      -73.193     -29.884       3.345
  H      -64.592     -27.978      -0.661
  H      -65.636     -26.876       0.243
  H      -73.366     -29.188       4.976
  P      -70.556     -28.049       7.793
  C      -68.456     -29.415       8.468
  O      -68.967     -28.184       7.968
  O      -71.123     -28.511       9.216
  O      -71.066     -26.706       7.400
  H      -71.280     -27.729       9.781
  H      -67.389     -29.359       8.531
  H      -68.733     -30.211       7.808
  H      -68.861     -29.601       9.441

 6  7  8  9  10  11  12  13  14  15  25  28  32  33  34  35 0
 6-311+G(2d,p)
 ****
 36  39  40 0
 6-311+G(2d,p)
 ****
 1  2  3  4  5  16  17  18  19  20  21  22  23  24 0
 3-21G
 ****
 26  27  29  30  31  37  38  41  42  43  44  45  46  47  48 0
 3-21G
 ****


