%nproc=1
%NoSave
%Mem=1900MB
#P OB98/GEN NMR

erre ene a

0 1
  C      -70.993     237.694     204.436
  O      -71.672     236.584     204.990
  H      -71.644     238.575     204.444
  H      -70.106     237.906     205.041
  H      -70.676     237.471     203.410
  P      -73.020     236.128     204.244
  C      -72.348     235.005     202.006
  O      -72.653     234.819     203.384
  C      -71.659     233.761     201.447
  O      -70.543     233.432     202.324
  C      -72.574     232.528     201.348
  O      -72.486     231.939     200.042
  C      -71.996     231.551     202.360
  O      -72.112     230.191     201.948
  C      -70.541     231.999     202.457
  N      -67.298     228.720     204.641
  C      -67.425     229.130     203.359
  N      -68.244     230.080     202.859
  C      -68.964     230.650     203.843
  C      -68.925     230.353     205.196
  C      -68.056     229.322     205.587
  N      -67.963     228.866     206.886
  N      -69.819     231.148     205.900
  C      -70.413     231.880     204.980
  N      -69.945     231.607     203.720
  O      -73.225     237.266     203.133
  O      -74.209     236.007     205.135
  H      -71.605     230.095     201.122
  H      -74.072     237.720     203.303
  H      -66.787     228.624     202.636
  H      -71.221     232.586     205.158
  H      -69.925     231.587     201.646
  H      -72.520     231.675     203.314
  H      -73.621     232.757     201.565
  H      -71.236     234.006     200.465
  H      -71.679     235.867     201.893
  H      -67.407     228.047     207.058
  H      -68.609     229.233     207.574
  H      -73.276     235.206     201.459
  P      -73.490     230.711     199.745
  C      -75.788     231.547     198.862
  O      -74.457     231.142     198.539
  O      -74.439     230.704     201.033
  O      -72.794     229.403     199.570
  H      -74.412     229.825     201.464
  H      -76.311     231.803     197.964
  H      -75.755     232.398     199.510
  H      -76.296     230.744     199.353

 6  7  8  9  10  11  12  13  14  15  25  28  32  33  34  35 0
 6-311+G(2d,p)
 ****
 36  39  40 0
 6-311+G(2d,p)
 ****
 1  2  3  4  5  16  17  18  19  20  21  22  23  24 0
 3-21G
 ****
 26  27  29  30  31  37  38  41  42  43  44  45  46  47  48 0
 3-21G
 ****


