%nproc=1
%NoSave
%Mem=1900MB
#P OB98/GEN NMR

erre ene a

0 1
  C     -532.052    -648.732    -276.178
  O     -532.634    -648.470    -277.457
  P     -532.612    -646.946    -277.960
  C     -533.181    -647.358    -280.457
  O     -533.614    -646.819    -279.215
  C     -533.763    -648.755    -280.694
  O     -535.211    -648.750    -280.514
  C     -533.493    -649.310    -282.089
  O     -533.337    -650.733    -281.980
  C     -534.776    -649.017    -282.832
  O     -534.902    -649.837    -284.000
  C     -535.789    -649.275    -281.723
  N     -540.695    -650.152    -282.838
  C     -539.658    -650.983    -282.623
  N     -538.374    -650.669    -282.354
  C     -538.217    -649.336    -282.270
  C     -539.187    -648.361    -282.479
  C     -540.477    -648.817    -282.770
  N     -541.534    -647.967    -283.025
  N     -538.639    -647.098    -282.354
  C     -537.359    -647.311    -282.086
  N     -537.074    -648.646    -281.990
  O     -531.159    -646.803    -278.621
  O     -532.819    -645.944    -276.874
  H     -535.792    -649.686    -284.382
  H     -530.590    -646.249    -278.049
  H     -539.883    -652.043    -282.681
  H     -536.623    -646.550    -281.953
  H     -535.991    -650.346    -281.573
  H     -534.801    -647.963    -283.145
  H     -532.609    -648.880    -282.587
  H     -533.341    -649.441    -279.934
  H     -532.087    -647.415    -280.482
  H     -542.426    -648.373    -283.262
  H     -541.376    -646.972    -283.028
  H     -533.468    -646.669    -281.260
  P     -531.833    -651.279    -281.828
  C     -531.840    -652.733    -279.667
  O     -531.944    -652.696    -281.091
  O     -531.186    -650.318    -280.709
  O     -531.056    -651.271    -283.096
  H     -530.222    -650.281    -280.827
  H     -532.578    -653.448    -279.290
  H     -532.036    -651.751    -279.225
  H     -530.847    -653.067    -279.403
  H     -532.129    -649.776    -275.958
  H     -532.570    -648.171    -275.429
  H     -531.021    -648.445    -276.189

 3  4  5  6  7  8  9  10  11  12  22  25  29  30  31  32 0
 6-311+G(2d,p)
 ****
 33  36  37 0
 6-311+G(2d,p)
 ****
 1  2  13  14  15  16  17  18  19  20  21  23  24  26 0
 3-21G
 ****
 27  28  34  35  38  39  40  41  42  43  44  45  46  47  48 0
 3-21G
 ****


