%nproc=1
%NoSave
%Mem=1900MB
#P OB98/GEN NMR

erre ene a

0 1
  C      727.434     446.053     -32.139
  O      727.098     446.075     -33.514
  H      727.987     445.133     -31.924
  H      726.520     446.060     -31.532
  H      728.060     446.908     -31.870
  P      726.524     447.430     -34.148
  C      724.085     446.962     -33.432
  O      725.218     447.816     -33.299
  C      722.865     447.576     -32.747
  O      721.688     446.777     -33.094
  C      722.949     447.605     -31.206
  O      722.228     448.761     -30.759
  C      722.205     446.333     -30.846
  O      721.872     446.285     -29.480
  C      721.051     446.401     -31.850
  N      720.317     445.150     -31.981
  C      718.949     445.190     -31.753
  O      718.321     446.212     -31.464
  N      718.294     443.987     -31.848
  C      718.870     442.786     -32.140
  O      718.233     441.740     -32.236
  C      720.327     442.803     -32.347
  C      720.976     443.963     -32.264
  O      726.335     447.422     -35.629
  O      727.582     448.544     -33.698
  H      728.215     448.711     -34.425
  H      721.291     445.510     -29.292
  H      717.290     443.998     -31.683
  H      720.814     441.861     -32.559
  H      722.055     444.017     -32.406
  H      720.361     447.212     -31.588
  H      722.838     445.459     -31.039
  H      723.981     447.651     -30.836
  H      722.694     448.579     -33.154
  H      724.332     446.004     -32.958
  H      723.874     446.803     -34.495
  P      722.944     450.030     -30.067
  C      722.029     449.807     -27.661
  O      723.168     449.730     -28.502
  O      722.234     451.328     -30.324
  O      724.423     450.070     -30.669
  H      724.702     450.999     -30.779
  H      722.314     449.587     -26.653
  H      721.296     449.099     -27.987
  H      721.617     450.793     -27.708

 6  7  8  9  10  11  12  13  14  15  16  27  31  32  33  34  35 0
 6-311+G(2d,p)
 ****
 36  37 0
 6-311+G(2d,p)
 ****
 1  2  3  4  5  17  18  19  20  21  22  23  24  25 0
 3-21G
 ****
 26  28  29  30  38  39  40  41  42  43  44  45 0
 3-21G
 ****


