%nproc=1
%NoSave
%Mem=1900MB
#P OB98/GEN NMR

erre ene a

0 1
  C      104.206     297.149    -216.393
  O      105.038     296.611    -217.408
  P      104.973     295.015    -217.634
  C      107.421     294.581    -218.356
  O      106.075     294.622    -218.754
  C      108.128     293.307    -218.859
  O      107.501     292.121    -218.301
  C      108.097     293.159    -220.384
  O      109.309     292.517    -220.778
  C      106.935     292.210    -220.618
  O      107.003     291.585    -221.897
  C      107.111     291.281    -219.413
  N      104.699     286.802    -219.955
  C      105.918     287.245    -220.396
  N      106.469     288.461    -220.219
  C      105.653     289.247    -219.485
  C      104.413     288.941    -218.979
  C      103.914     287.660    -219.248
  N      102.676     287.222    -218.839
  N      103.861     290.036    -218.331
  C      104.797     290.977    -218.420
  N      105.894     290.542    -219.090
  O      103.572     294.804    -218.382
  O      105.045     294.226    -216.372
  H      106.781     292.254    -222.577
  H      102.938     294.386    -217.782
  H      106.502     286.528    -220.953
  H      104.687     291.996    -218.045
  H      107.904     290.524    -219.573
  H      105.994     292.763    -220.541
  H      107.966     294.097    -220.937
  H      109.182     293.316    -218.504
  H      107.491     294.599    -217.245
  H      102.397     286.285    -219.114
  H      102.070     287.861    -218.359
  H      107.935     295.473    -218.694
  P      110.471     293.450    -221.398
  C      110.488     293.143    -223.988
  O      110.982     292.721    -222.717
  O      111.665     293.281    -220.351
  O      110.047     294.864    -221.569
  H      112.249     294.067    -220.375
  H      111.318     293.144    -224.700
  H      110.055     294.148    -223.939
  H      109.724     292.436    -224.314
  H      104.342     298.209    -216.345
  H      104.465     296.713    -215.451
  H      103.183     296.931    -216.617

 3  4  5  6  7  8  9  10  11  12  22  25  29  30  31  32 0
 6-311+G(2d,p)
 ****
 33  36  37 0
 6-311+G(2d,p)
 ****
 1  2  13  14  15  16  17  18  19  20  21  23  24  26 0
 3-21G
 ****
 27  28  34  35  38  39  40  41  42  43  44  45  46  47  48 0
 3-21G
 ****


