%nproc=1
%NoSave
%Mem=1900MB
#P OB98/GEN NMR

erre ene a

0 1
  C     -251.546    -227.039     330.076
  O     -250.381    -227.100     330.890
  P     -250.464    -227.635     332.402
  C     -250.217    -230.067     331.595
  O     -251.015    -229.147     332.328
  C     -249.281    -230.830     332.537
  O     -250.085    -231.585     333.474
  C     -248.376    -231.826     331.804
  O     -247.110    -231.864     332.468
  C     -249.055    -233.182     332.007
  O     -248.106    -234.255     331.936
  C     -249.712    -232.981     333.380
  N     -251.528    -237.621     334.629
  C     -250.265    -237.138     334.575
  N     -249.861    -235.900     334.219
  C     -250.909    -235.114     333.925
  C     -252.249    -235.472     333.935
  C     -252.549    -236.801     334.300
  N     -253.835    -237.297     334.363
  N     -253.048    -234.413     333.546
  C     -252.207    -233.421     333.333
  N     -250.901    -233.797     333.557
  O     -251.207    -226.749     333.344
  O     -248.941    -227.825     332.844
  H     -247.620    -234.258     332.788
  H     -248.830    -227.558     333.775
  H     -249.480    -237.826     334.867
  H     -252.477    -232.425     333.011
  H     -249.012    -233.200     334.195
  H     -249.805    -233.330     331.225
  H     -248.244    -231.594     330.746
  H     -248.684    -230.117     333.099
  H     -249.615    -229.505     330.865
  H     -253.969    -238.222     334.752
  H     -254.606    -236.638     334.286
  H     -250.870    -230.761     331.044
  P     -245.856    -232.350     331.562
  C     -244.477    -230.197     332.086
  O     -245.130    -230.987     331.114
  O     -246.279    -233.287     330.471
  O     -244.898    -232.990     332.674
  H     -245.077    -232.603     333.561
  H     -244.077    -229.290     331.588
  H     -243.644    -230.741     332.522
  H     -245.177    -229.884     332.859
  H     -251.287    -226.659     329.110
  H     -252.266    -226.393     330.532
  H     -251.961    -228.020     329.973

 3  4  5  6  7  8  9  10  11  12  22  25  29  30  31  32 0
 6-311+G(2d,p)
 ****
 33  36  37 0
 6-311+G(2d,p)
 ****
 1  2  13  14  15  16  17  18  19  20  21  23  24  26 0
 3-21G
 ****
 27  28  34  35  38  39  40  41  42  43  44  45  46  47  48 0
 3-21G
 ****


