%nproc=1
%NoSave
%Mem=1900MB
#P OB98/GEN NMR

erre ene a

0 1
  C      -48.396     317.829     616.423
  O      -49.738     317.768     616.868
  H      -48.337     318.527     615.582
  H      -48.069     316.843     616.080
  H      -47.741     318.186     617.219
  P      -50.075     316.933     618.193
  C      -50.295     314.764     616.813
  O      -50.919     315.652     617.734
  C      -51.265     313.645     616.436
  O      -51.668     312.914     617.616
  C      -52.552     314.138     615.785
  O      -52.346     314.511     614.440
  C      -53.455     312.929     615.985
  O      -53.199     311.934     614.984
  C      -53.016     312.435     617.382
  N      -53.920     312.857     618.446
  C      -55.150     312.203     618.512
  O      -55.496     311.344     617.713
  N      -55.987     312.611     619.521
  C      -55.767     313.652     620.375
  O      -56.587     314.025     621.203
  C      -54.463     314.323     620.247
  C      -53.616     313.900     619.302
  O      -50.672     317.715     619.319
  O      -48.661     316.299     618.610
  H      -53.311     312.378     614.119
  H      -48.300     316.786     619.375
  H      -56.887     312.156     619.579
  H      -54.249     315.142     620.911
  H      -52.649     314.389     619.186
  H      -52.963     311.340     617.396
  H      -54.509     313.186     615.920
  H      -52.963     314.980     616.365
  H      -50.737     312.944     615.771
  H      -49.406     314.333     617.287
  H      -49.986     315.327     615.924
  P      -52.720     315.988     613.947
  C      -55.243     315.563     613.742
  O      -54.043     315.873     613.051
  O      -51.594     316.761     613.340
  O      -53.248     316.702     615.279
  H      -52.681     317.478     615.474
  H      -56.053     315.513     613.045
  H      -55.443     316.323     614.468
  H      -55.137     314.619     614.234

 6  7  8  9  10  11  12  13  14  15  16  26  31  32  33  34  35 0
 6-311+G(2d,p)
 ****
 36  37 0
 6-311+G(2d,p)
 ****
 1  2  3  4  5  17  18  19  20  21  22  23  24  25 0
 3-21G
 ****
 27  28  29  30  38  39  40  41  42  43  44  45 0
 3-21G
 ****


