%nproc=1
%NoSave
%Mem=1900MB
#P OB98/GEN NMR

erre ene a

0 1
  C     -463.278    -242.898     -57.932
  O     -464.171    -242.077     -58.679
  P     -465.714    -242.033     -58.245
  C     -466.304    -242.671     -60.678
  O     -466.611    -241.834     -59.563
  C     -467.591    -243.259     -61.279
  O     -468.295    -243.997     -60.244
  C     -468.594    -242.222     -61.807
  O     -468.469    -241.797     -63.161
  C     -469.902    -242.999     -61.713
  O     -470.058    -243.837     -62.873
  C     -469.718    -243.869     -60.470
  N     -473.933    -243.989     -57.569
  C     -473.584    -244.667     -58.687
  N     -472.444    -244.574     -59.399
  C     -471.603    -243.684     -58.843
  C     -471.817    -242.924     -57.705
  C     -473.054    -243.099     -57.053
  N     -473.411    -242.407     -55.922
  N     -470.731    -242.114     -57.446
  C     -469.889    -242.371     -58.423
  N     -470.358    -243.321     -59.287
  O     -466.045    -241.132     -57.103
  O     -466.010    -243.562     -57.864
  H     -470.970    -244.186     -62.842
  H     -466.610    -243.587     -57.097
  H     -474.320    -245.371     -59.061
  H     -468.925    -241.889     -58.547
  H     -470.120    -244.880     -60.606
  H     -470.777    -242.342     -61.683
  H     -468.633    -241.346     -61.147
  H     -467.326    -243.959     -62.077
  H     -465.648    -243.478     -60.357
  H     -474.334    -242.557     -55.542
  H     -472.787    -241.696     -55.561
  H     -465.742    -242.067     -61.389
  P     -467.835    -240.374     -63.534
  C     -470.141    -239.401     -64.304
  O     -468.814    -239.738     -64.635
  O     -466.399    -240.407     -63.925
  O     -468.147    -239.501     -62.232
  H     -469.092    -239.306     -62.097
  H     -470.562    -238.796     -65.110
  H     -470.171    -238.822     -63.376
  H     -470.738    -240.311     -64.199
  H     -462.293    -242.819     -58.343
  H     -463.604    -243.916     -57.980
  H     -463.266    -242.575     -56.912

 3  4  5  6  7  8  9  10  11  12  22  25  29  30  31  32 0
 6-311+G(2d,p)
 ****
 33  36  37 0
 6-311+G(2d,p)
 ****
 1  2  13  14  15  16  17  18  19  20  21  23  24  26 0
 3-21G
 ****
 27  28  34  35  38  39  40  41  42  43  44  45  46  47  48 0
 3-21G
 ****


