%nproc=1
%NoSave
%Mem=1900MB
#P OB98/GEN NMR

erre ene a

0 1
  C       72.837      -7.644      38.206
  O       73.488      -8.717      37.560
  P       74.997      -8.642      37.040
  C       76.375      -7.037      35.530
  O       75.083      -7.499      35.912
  C       76.476      -6.716      34.032
  O       76.478      -7.944      33.276
  C       75.244      -5.929      33.577
  O       75.185      -4.528      33.758
  C       74.975      -6.404      32.154
  O       75.500      -5.511      31.170
  C       75.692      -7.754      32.089
  N       72.417     -10.154      29.055
  C       73.347      -9.185      28.736
  N       73.254      -8.664      27.493
  N       74.260      -8.757      29.568
  C       74.164      -9.303      30.803
  C       73.296     -10.279      31.233
  C       72.320     -10.774      30.292
  O       71.424     -11.572      30.561
  N       73.441     -10.537      32.572
  C       74.368      -9.688      32.965
  N       74.809      -8.892      31.935
  O       75.689      -9.943      36.795
  O       75.729      -7.935      38.294
  H       75.504      -5.978      30.314
  H       76.630      -8.305      38.353
  H       71.685     -10.389      28.397
  H       74.729      -9.588      33.981
  H       76.393      -7.778      31.245
  H       73.897      -6.471      31.966
  H       72.477      -8.866      26.881
  H       74.396      -6.306      34.162
  H       73.804      -7.839      27.284
  H       77.424      -6.222      33.800
  H       77.095      -7.812      35.809
  H       76.626      -6.143      36.107
  P       73.938      -3.693      34.310
  C       71.500      -3.298      33.643
  O       72.776      -3.734      33.210
  O       74.427      -2.169      34.254
  O       73.505      -4.050      35.694
  H       73.901      -1.633      34.876
  H       70.745      -3.647      32.936
  H       71.479      -2.205      33.674
  H       71.268      -3.693      34.636
  H       71.838      -7.933      38.459
  H       72.809      -6.798      37.552
  H       73.371      -7.388      39.097

 3  4  5  6  7  8  9  10  11  12  23  26  30  31 0
 6-311+G(2d,p)
 ****
 33  35  36  37  38 0
 6-311+G(2d,p)
 ****
 1  2  13  14  15  16  17  18  19  20  21  22  24  25 0
 3-21G
 ****
 27  28  29  32  34  39  40  41  42  43  44  45  46  47  48  49 0
 3-21G
 ****


