%nproc=1
%NoSave
%Mem=1900MB
#P OB98/GEN NMR

erre ene a

0 1
  C     -144.786    -402.880    -182.465
  O     -143.976    -401.867    -181.897
  H     -145.602    -403.105    -181.774
  H     -144.197    -403.787    -182.628
  H     -145.209    -402.533    -183.412
  P     -142.692    -401.413    -182.746
  C     -140.757    -402.321    -181.282
  O     -141.545    -401.190    -181.646
  C     -139.696    -401.925    -180.258
  O     -138.857    -400.876    -180.780
  C     -140.264    -401.398    -178.941
  O     -140.603    -402.482    -178.087
  C     -139.071    -400.622    -178.404
  O     -138.137    -401.532    -177.783
  C     -138.450    -400.026    -179.677
  N     -138.600    -395.200    -177.937
  C     -138.319    -396.360    -177.316
  N     -138.353    -397.615    -177.825
  C     -138.714    -397.597    -179.125
  C     -139.034    -396.478    -179.883
  C     -138.959    -395.231    -179.242
  N     -139.256    -394.042    -179.876
  N     -139.358    -396.846    -181.174
  C     -139.177    -398.149    -181.204
  N     -138.825    -398.660    -179.981
  O     -142.914    -400.289    -183.704
  O     -142.263    -402.803    -183.420
  H     -137.982    -402.252    -178.424
  H     -142.354    -403.530    -182.781
  H     -138.031    -396.286    -176.277
  H     -139.279    -398.772    -182.092
  H     -137.349    -400.046    -179.644
  H     -139.353    -399.892    -177.643
  H     -141.095    -400.714    -179.099
  H     -139.050    -402.796    -180.084
  H     -140.270    -402.743    -182.175
  H     -139.366    -393.227    -179.295
  H     -139.645    -394.086    -180.812
  H     -141.431    -403.075    -180.870
  P     -142.072    -402.606    -177.453
  C     -140.815    -402.600    -175.208
  O     -141.841    -403.212    -175.983
  O     -143.057    -403.328    -178.308
  O     -142.502    -401.096    -177.153
  H     -143.473    -401.047    -177.022
  H     -140.752    -403.082    -174.255
  H     -141.043    -401.564    -175.069
  H     -139.879    -402.694    -175.718

 6  7  8  9  10  11  12  13  14  15  25  28  32  33  34  35 0
 6-311+G(2d,p)
 ****
 36  39  40 0
 6-311+G(2d,p)
 ****
 1  2  3  4  5  16  17  18  19  20  21  22  23  24 0
 3-21G
 ****
 26  27  29  30  31  37  38  41  42  43  44  45  46  47 0
 3-21G
 ****
 48 0
 3-21G
 ****


