%nproc=1
%NoSave
%Mem=1900MB
#P OB98/GEN NMR

erre ene a

0 1
  C        7.731     231.133     -67.823
  O        9.072     231.372     -67.426
  P        9.352     231.687     -65.878
  C        8.855     234.188     -66.324
  O        8.555     233.039     -65.537
  C        8.879     235.445     -65.462
  O        7.525     235.731     -65.008
  C        9.772     235.339     -64.214
  O       10.522     236.554     -64.063
  C        8.776     235.267     -63.069
  O        9.333     235.736     -61.844
  C        7.647     236.132     -63.628
  N        4.829     237.900     -59.827
  C        5.961     238.433     -60.405
  N        6.440     239.573     -59.855
  N        6.574     237.903     -61.432
  C        5.964     236.783     -61.896
  C        4.837     236.161     -61.415
  C        4.205     236.728     -60.239
  O        3.253     236.252     -59.627
  N        4.517     235.055     -62.163
  C        5.449     235.007     -63.093
  N        6.378     236.005     -62.947
  O       10.887     232.136     -65.878
  O        9.120     230.548     -64.944
  H        8.722     235.467     -61.131
  H       11.393     231.576     -65.259
  H        4.408     238.337     -59.027
  H        5.511     234.253     -63.871
  H        7.932     237.194     -63.606
  H        8.459     234.228     -62.933
  H        5.998     240.055     -59.091
  H       10.455     234.482     -64.222
  H        7.256     239.992     -60.284
  H        9.190     236.293     -66.089
  H        8.092     234.297     -67.102
  H        9.829     234.040     -66.803
  P       12.100     236.382     -63.832
  C       11.864     236.687     -61.255
  O       12.266     235.858     -62.327
  O       12.632     237.892     -63.773
  O       12.784     235.578     -64.889
  H       13.577     237.932     -64.018
  H       11.314     237.568     -61.599
  H       12.750     237.015     -60.707
  H       11.220     236.111     -60.584
  H        7.700     230.939     -68.875
  H        7.135     231.993     -67.601
  H        7.347     230.287     -67.292

 3  4  5  6  7  8  9  10  11  12  23  26  30  31  33  0
 6-311+G(2d,p)
 ****
 35  36  37  38 0
 6-311+G(2d,p)
 ****
 1  2  13  14  15  16  17  18  19  20  21  22  24  25  27  28  29 0
 3-21G
 ****
 32  34  39  40  41  42  43  44  45  46  47  48  49 0
 3-21G
 ****


