%nproc=1
%NoSave
%Mem=1900MB
#P OB98/GEN NMR

erre ene a

0 1
  C      437.120     447.464    -327.796
  O      437.318     446.124    -328.254
  P      437.604     444.973    -327.174
  C      435.567     443.538    -327.843
  O      436.984     443.601    -327.730
  C      435.130     442.170    -328.374
  O      435.393     442.034    -329.783
  C      435.838     441.005    -327.704
  O      435.332     440.789    -326.391
  C      435.560     439.876    -328.694
  O      434.257     439.319    -328.478
  C      435.599     440.632    -330.052
  N      436.815     440.395    -330.805
  C      436.924     439.154    -331.428
  O      436.056     438.297    -331.278
  N      438.051     438.884    -332.181
  C      438.981     439.788    -332.287
  N      440.067     439.466    -333.046
  C      438.903     441.115    -331.647
  C      437.808     441.344    -330.912
  O      437.243     445.298    -325.759
  O      439.185     444.724    -327.331
  H      434.286     438.905    -327.596
  H      439.544     444.440    -326.470
  H      439.694     441.828    -331.773
  H      437.675     442.290    -330.413
  H      434.749     440.316    -330.678
  H      436.285     439.069    -328.611
  H      436.915     441.209    -327.668
  H      434.036     442.085    -328.220
  H      440.097     438.550    -333.469
  H      435.215     444.329    -328.502
  H      440.819     440.125    -333.237
  H      435.129     443.731    -326.846
  P      435.968     439.579    -325.550
  C      436.560     441.071    -323.509
  O      435.839     439.954    -324.002
  O      437.546     439.729    -325.833
  O      435.479     438.226    -325.940
  H      437.962     438.850    -325.850
  H      436.124     441.367    -322.551
  H      436.475     441.927    -324.194
  H      437.609     440.811    -323.362
  H      436.942     448.105    -328.634
  H      437.993     447.795    -327.273
  H      436.277     447.495    -327.138

 3  4  5  6  7  8  9  10  11  12  13  23  27  28  29  30  32 0
 6-311+G(2d,p)
 ****
 34  35 0
 6-311+G(2d,p)
 ****
 1  2  14  15  16  17  18  19  20  21  22  24  25  26 0
 3-21G
 ****
 31  33  36  37  38  39  40  41  42  43  44  45  46 0
 3-21G
 ****


