%nproc=1
%NoSave
%Mem=1900MB
#P OB98/GEN NMR

erre ene a

0 1
  C        4.615      -9.650    -185.020
  O        5.083     -10.923    -185.489
  P        5.170     -12.114    -184.418
  C        7.635     -12.837    -184.886
  O        6.251     -13.181    -184.933
  C        8.404     -13.609    -185.961
  O        8.300     -12.960    -187.240
  C        9.899     -13.702    -185.676
  O       10.165     -14.688    -184.697
  C       10.461     -14.031    -187.052
  O       10.527     -15.448    -187.272
  C        9.446     -13.371    -188.018
  N       10.014     -12.251    -188.751
  C       10.917     -12.583    -189.772
  O       11.202     -13.764    -189.984
  N       11.490     -11.567    -190.499
  C       11.203     -10.335    -190.222
  N       11.804      -9.373    -190.976
  C       10.278      -9.939    -189.135
  C        9.728     -10.936    -188.446
  O        3.775     -12.878    -184.603
  O        5.362     -11.650    -183.009
  H       11.328     -15.754    -186.799
  H        3.480     -13.250    -183.752
  H       10.078      -8.894    -188.934
  H        9.038     -10.739    -187.628
  H        9.082     -14.104    -188.748
  H       11.484     -13.643    -187.171
  H       10.276     -12.722    -185.345
  H        7.974     -14.619    -186.043
  H       12.436      -9.680    -191.706
  H        8.045     -13.062    -183.898
  H       11.659      -8.377    -190.838
  H        7.731     -11.755    -185.030
  P       11.382     -14.441    -183.693
  C       12.363     -16.820    -183.760
  O       11.649     -15.863    -182.996
  O       10.677     -13.615    -182.504
  O       12.581     -13.727    -184.228
  H       11.347     -13.316    -181.864
  H       12.647     -17.648    -183.106
  H       13.262     -16.373    -184.181
  H       11.717     -17.210    -184.557
  H        4.607      -8.952    -185.831
  H        5.265      -9.293    -184.249
  H        3.624      -9.756    -184.630

 3  4  5  6  7  8  9  10  11  12  13  21  23  27  28  29  30  32 0
 6-311+G(2d,p)
 ****
 34  35 0
 6-311+G(2d,p)
 ****
 1  2  14  15  16  17  18  19  20  22  24  25  26 0
 3-21G
 ****
 31  33  36  37  38  39  40  41  42  43  44  45  46 0
 3-21G
 ****


