%nproc=1
%NoSave
%Mem=1900MB
#P OB98/GEN NMR

erre ene a

0 1
  C      232.020     -21.041    -272.775
  O      232.628     -22.292    -272.456
  P      231.737     -23.619    -272.469
  C      231.107     -23.418    -269.977
  O      231.692     -24.235    -270.991
  C      231.398     -23.987    -268.581
  O      230.790     -25.299    -268.428
  C      232.905     -24.158    -268.316
  O      233.200     -23.941    -266.928
  C      233.136     -25.632    -268.613
  O      234.325     -26.111    -267.989
  C      231.836     -26.236    -268.078
  N      230.524     -31.054    -266.930
  C      230.647     -29.946    -266.158
  N      230.980     -28.694    -266.539
  C      231.182     -28.636    -267.870
  C      231.079     -29.675    -268.785
  C      230.745     -30.939    -268.263
  N      230.638     -32.064    -269.046
  N      231.361     -29.237    -270.067
  C      231.669     -27.960    -269.915
  N      231.537     -27.548    -268.619
  O      232.059     -24.605    -273.548
  O      230.248     -23.047    -272.649
  H      234.521     -26.990    -268.357
  H      229.757     -23.605    -273.284
  H      230.462     -30.095    -265.100
  H      232.001     -27.304    -270.707
  H      231.848     -26.322    -266.982
  H      233.229     -25.782    -269.691
  H      233.549     -23.509    -268.926
  H      230.949     -23.337    -267.827
  H      230.029     -23.354    -270.135
  H      230.510     -32.952    -268.566
  H      230.949     -32.023    -270.007
  H      231.492     -22.399    -270.081
  P      233.305     -22.399    -266.465
  C      235.798     -21.958    -265.807
  O      234.507     -22.343    -265.401
  O      231.998     -21.826    -266.013
  O      233.897     -21.696    -267.776
  H      234.684     -22.125    -268.148
  H      236.433     -21.859    -264.926
  H      235.775     -21.001    -266.330
  H      236.230     -22.723    -266.464
  H      232.753     -20.264    -272.719
  H      231.233     -20.839    -272.079
  H      231.618     -21.082    -273.766

 3  4  5  6  7  8  9  10  11  12  22  25  29  30  31  32 0
 6-311+G(2d,p)
 ****
 33  36  37 0
 6-311+G(2d,p)
 ****
 1  2  13  14  15  16  17  18  19  20  21  23  24  26 0
 3-21G
 ****
 27  28  34  35  38  39  40  41  42  43  44  45  46  47  48 0
 3-21G
 ****


