%nproc=1
%NoSave
%Mem=1900MB
#P OB98/GEN NMR

erre ene a

0 1
  C      -37.934      52.707     243.585
  O      -38.176      53.600     244.654
  H      -38.805      52.055     243.470
  H      -37.056      52.089     243.796
  H      -37.785      53.265     242.657
  P      -36.996      54.625     245.014
  C      -37.752      56.699     243.682
  O      -36.884      55.571     243.719
  C      -36.982      57.979     244.012
  O      -35.991      58.201     242.975
  C      -37.870      59.224     244.082
  O      -37.410      60.071     245.135
  C      -37.638      59.903     242.743
  O      -37.885      61.306     242.796
  C      -36.186      59.528     242.453
  N      -32.892      61.171     238.918
  C      -32.848      61.177     240.267
  N      -33.765      60.702     241.137
  C      -34.792      60.132     240.480
  C      -34.977      60.052     239.109
  C      -33.965      60.611     238.306
  N      -34.015      60.629     236.933
  N      -36.179      59.432     238.820
  C      -36.703      59.133     239.994
  N      -35.908      59.552     241.026
  O      -35.716      54.005     245.465
  O      -37.709      55.583     246.079
  H      -38.718      61.454     243.289
  H      -38.609      55.827     245.794
  H      -31.963      61.632     240.708
  H      -37.652      58.631     240.150
  H      -35.470      60.203     242.937
  H      -38.308      59.471     241.990
  H      -38.923      58.979     244.238
  H      -36.433      57.827     244.948
  H      -38.570      56.569     244.399
  H      -33.238      61.038     236.434
  H      -34.798      60.202     236.461
  H      -38.179      56.762     242.676
  P      -38.480      60.625     246.193
  C      -38.357      58.738     247.950
  O      -39.145      59.373     246.948
  O      -39.438      61.650     245.680
  O      -37.543      61.250     247.337
  H      -37.962      62.062     247.682
  H      -38.908      57.925     248.375
  H      -38.117      59.445     248.716
  H      -37.454      58.367     247.512

 6  7  8  9  10  11  12  13  14  15  25  28  32  33  34  35 0
 6-311+G(2d,p)
 ****
 36  39  40 0
 6-311+G(2d,p)
 ****
 1  2  3  4  5  16  17  18  19  20  21  22  23  24 0
 3-21G
 ****
 26  27  29  30  31  37  38  41  42  43  44  45  46  47 0
 3-21G
 ****
 48 0
 3-21G
 ****


