%nproc=1
%NoSave
%Mem=1900MB
#P OB98/GEN NMR

erre ene a

0 1
  C     -430.597      -4.106    -329.750
  O     -429.881      -4.127    -328.533
  H     -430.911      -3.078    -329.952
  H     -431.488      -4.735    -329.674
  H     -429.970      -4.449    -330.577
  P     -429.161      -5.489    -328.085
  C     -427.099      -4.062    -327.482
  O     -427.579      -5.225    -328.147
  C     -425.586      -3.953    -327.660
  O     -425.269      -3.727    -329.052
  C     -424.960      -2.786    -326.905
  O     -424.866      -3.055    -325.518
  C     -423.634      -2.656    -327.630
  O     -422.678      -3.604    -327.138
  C     -424.025      -2.984    -329.088
  N     -424.156      -1.778    -329.907
  C     -422.970      -1.166    -330.291
  O     -421.854      -1.594    -329.991
  N     -423.101       0.003    -330.991
  C     -424.273       0.670    -331.214
  O     -424.324       1.826    -331.624
  C     -425.496      -0.054    -330.837
  C     -425.385      -1.219    -330.200
  O     -429.629      -6.724    -328.777
  O     -429.447      -5.560    -326.507
  H     -430.169      -6.193    -326.342
  H     -423.079      -4.487    -327.292
  H     -422.244       0.476    -331.240
  H     -426.451       0.408    -331.064
  H     -426.277      -1.758    -329.885
  H     -423.277      -3.640    -329.549
  H     -423.207      -1.659    -327.507
  H     -425.548      -1.881    -327.075
  H     -425.133      -4.906    -327.357
  H     -427.334      -4.146    -326.416
  H     -427.601      -3.183    -327.892
  P     -425.478      -2.029    -324.455
  C     -426.765      -3.707    -322.991
  O     -426.868      -2.624    -323.913
  O     -425.541      -0.606    -324.907
  O     -424.515      -2.176    -323.180
  H     -424.232      -1.282    -322.897
  H     -427.745      -4.021    -322.699
  H     -426.220      -3.389    -322.127
  H     -426.253      -4.523    -323.456

 6  7  8  9  10  11  12  13  14  15  16  27  31  32  33  34  35 0
 6-311+G(2d,p)
 ****
 36  37 0
 6-311+G(2d,p)
 ****
 1  2  3  4  5  17  18  19  20  21  22  23  24  25 0
 3-21G
 ****
 26  28  29  30  38  39  40  41  42  43  44  45 0
 3-21G
 ****


