%nproc=1
%NoSave
%Mem=1900MB
#P OB98/GEN NMR

erre ene a

0 1
  C       16.964     365.108    -139.681
  O       16.229     366.267    -139.371
  P       15.889     366.607    -137.841
  C       17.885     368.127    -137.271
  O       16.481     368.063    -137.518
  C       18.470     369.404    -137.860
  O       18.530     369.318    -139.299
  C       17.654     370.658    -137.564
  O       17.866     371.095    -136.235
  C       18.174     371.610    -138.633
  O       19.413     372.207    -138.221
  C       18.404     370.661    -139.818
  N       16.792     372.926    -144.099
  C       17.822     373.195    -143.271
  N       18.170     372.568    -142.123
  C       17.296     371.581    -141.851
  C       16.174     371.209    -142.580
  C       15.942     371.920    -143.778
  N       14.927     371.615    -144.657
  N       15.515     370.172    -141.956
  C       16.214     369.925    -140.870
  N       17.331     370.709    -140.800
  O       16.247     365.548    -136.855
  O       14.310     366.861    -137.852
  H       19.560     372.994    -138.774
  H       13.870     366.215    -137.264
  H       18.463     374.014    -143.574
  H       15.963     369.185    -140.113
  H       19.336     370.887    -140.348
  H       17.474     372.429    -138.848
  H       16.590     370.462    -137.747
  H       19.496     369.518    -137.490
  H       18.358     367.253    -137.730
  H       14.938     372.087    -145.547
  H       14.488     370.698    -144.590
  H       18.062     368.096    -136.188
  P       16.654     371.752    -135.412
  C       15.844     369.834    -133.919
  O       16.606     371.019    -133.987
  O       15.350     371.830    -136.136
  O       17.204     373.210    -135.040
  H       16.457     373.838    -135.006
  H       14.780     370.079    -133.859
  H       16.131     369.279    -133.019
  H       16.029     369.198    -134.795
  H       17.096     365.042    -140.741
  H       16.434     364.246    -139.333
  H       17.921     365.155    -139.205

 3  4  5  6  7  8  9  10  11  12  22  25  29  30  31  32 0
 6-311+G(2d,p)
 ****
 33  36  37 0
 6-311+G(2d,p)
 ****
 1  2  13  14  15  16  17  18  19  20  21  23  24  26 0
 3-21G
 ****
 27  28  34  35  38  39  40  41  42  43  44  45  46  47  48 0
 3-21G
 ****


