%nproc=1
%NoSave
%Mem=1900MB
#P OB98/GEN NMR

erre ene a

0 1
  C      232.422     151.529    -111.903
  O      232.624     150.392    -112.739
  P      233.872     150.193    -113.716
  C      235.943     150.721    -112.198
  O      235.130     149.747    -112.834
  C      237.413     150.287    -112.065
  O      238.222     151.428    -111.670
  C      237.568     149.244    -110.956
  O      237.310     147.878    -111.226
  C      238.943     149.512    -110.364
  O      239.961     148.695    -110.949
  C      239.189     150.986    -110.695
  N      241.539     152.590    -106.443
  C      241.928     151.619    -107.338
  N      243.062     150.947    -107.047
  N      241.255     151.315    -108.417
  C      240.097     152.000    -108.543
  C      239.592     152.973    -107.710
  C      240.376     153.343    -106.548
  O      240.081     154.205    -105.728
  N      238.375     153.430    -108.148
  C      238.129     152.717    -109.228
  N      239.151     151.837    -109.516
  O      234.095     151.282    -114.710
  O      233.491     148.856    -114.537
  H      239.757     147.766    -110.743
  H      233.877     148.958    -115.431
  H      242.108     152.799    -105.638
  H      237.242     152.801    -109.841
  H      240.176     151.132    -111.149
  H      238.948     149.291    -109.287
  H      243.563     151.048    -106.176
  H      236.855     149.511    -110.165
  H      243.236     150.091    -107.579
  H      237.812     149.959    -113.027
  H      235.508     150.905    -111.212
  H      235.886     151.667    -112.741
  P      236.291     146.932    -110.434
  C      234.212     147.452    -111.838
  O      235.154     146.463    -111.454
  O      235.501     147.937    -109.467
  O      236.929     145.831    -109.648
  H      235.044     147.443    -108.761
  H      233.337     146.961    -112.269
  H      234.656     148.112    -112.591
  H      233.897     148.050    -110.974
  H      231.512     151.410    -111.353
  H      232.361     152.410    -112.507
  H      233.242     151.621    -111.221

 3  4  5  6  7  8  9  10  11  12  23  26  30  31 0
 6-311+G(2d,p)
 ****
 33  35  36  37  38 0
 6-311+G(2d,p)
 ****
 1  2  13  14  15  16  17  18  19  20  21  22  24  25 0
 3-21G
 ****
 27  28  29  32  34  39  40  41  42  43  44  45  46  47  48  49 0
 3-21G
 ****


