%nproc=1
%NoSave
%Mem=1900MB
#P OB98/GEN NMR

erre ene a

0 1
  C      744.633     913.278    -524.747
  O      744.574     912.509    -525.958
  P      745.279     913.173    -527.240
  C      746.619     911.060    -527.956
  O      746.680     912.394    -527.476
  C      747.873     910.709    -528.761
  O      748.087     911.674    -529.835
  C      749.161     910.684    -527.928
  O      749.999     909.649    -528.457
  C      749.740     912.062    -528.217
  O      751.128     912.162    -527.851
  C      749.424     912.153    -529.708
  N      752.685     916.005    -530.553
  C      752.846     914.769    -530.005
  N      751.940     913.796    -529.808
  C      750.724     914.205    -530.246
  C      750.402     915.432    -530.841
  C      751.451     916.364    -530.983
  N      751.275     917.617    -531.531
  N      749.045     915.479    -531.139
  C      748.563     914.338    -530.678
  N      749.546     913.512    -530.225
  O      745.734     914.607    -526.700
  O      744.399     913.252    -528.427
  H      751.444     913.033    -528.097
  H      745.104     915.286    -526.992
  H      753.866     914.535    -529.699
  H      747.526     914.056    -530.647
  H      750.088     911.527    -530.313
  H      749.219     912.815    -527.635
  H      748.992     910.486    -526.852
  H      747.706     909.711    -529.230
  H      745.733     910.931    -528.589
  H      752.090     918.205    -531.586
  H      750.370     917.903    -531.837
  H      746.488     910.373    -527.113
  P      749.829     908.158    -527.878
  C      749.917     907.121    -530.215
  O      749.129     907.334    -529.056
  O      748.599     908.354    -526.849
  O      751.059     907.569    -527.238
  H      747.888     908.805    -527.292
  H      749.357     906.473    -530.909
  H      750.859     906.604    -529.956
  H      750.124     908.076    -530.704
  H      744.136     912.746    -523.962
  H      744.151     914.221    -524.899
  H      745.656     913.440    -524.477

 3  4  5  6  7  8  9  10  11  12  22  25  29  30  31  32 0
 6-311+G(2d,p)
 ****
 33  36  37 0
 6-311+G(2d,p)
 ****
 1  2  13  14  15  16  17  18  19  20  21  23  24  26 0
 3-21G
 ****
 27  28  34  35  38  39  40  41  42  43  44  45  46  47  48 0
 3-21G
 ****


