%nproc=1
%NoSave
%Mem=1900MB
#P OB98/GEN NMR

erre ene a

0 1
  C       12.804      51.627    -109.285
  O       14.120      51.311    -109.698
  H       12.105      51.279    -110.050
  H       12.694      52.709    -109.173
  H       12.576      51.125    -108.342
  P       15.303      51.722    -108.693
  C       14.894      49.486    -107.454
  O       14.982      50.901    -107.353
  C       15.846      48.819    -106.463
  O       15.386      49.007    -105.114
  C       15.989      47.313    -106.647
  O       16.895      47.015    -107.695
  C       16.545      46.915    -105.288
  O       17.959      47.193    -105.241
  C       15.795      47.856    -104.328
  N       14.096      44.666    -100.682
  C       15.333      44.889    -101.174
  N       15.705      45.719    -102.173
  C       14.641      46.363    -102.677
  C       13.319      46.239    -102.278
  C       13.059      45.349    -101.221
  N       11.795      45.132    -100.715
  N       12.501      47.056    -103.029
  C       13.323      47.703    -103.832
  N       14.623      47.293    -103.683
  O       15.539      53.183    -108.535
  O       16.529      50.897    -109.313
  H       18.090      48.103    -105.565
  H       16.231      50.024    -109.622
  H       16.133      44.326    -100.702
  H       13.030      48.484    -104.523
  H       16.447      48.220    -103.526
  H       16.424      45.849    -105.085
  H       15.015      46.833    -106.789
  H       16.821      49.318    -106.547
  H       15.130      49.161    -108.473
  H       11.676      44.358    -100.081
  H       11.013      45.547    -101.200
  H       13.860      49.204    -107.232
  P       16.751      45.658    -108.539
  C       15.541      47.010    -110.359
  O       15.496      45.863    -109.519
  O       16.706      44.412    -107.725
  O       17.997      45.673    -109.538
  H       18.358      44.772    -109.643
  H       14.659      47.044    -110.964
  H       16.404      46.957    -110.989
  H       15.594      47.892    -109.756

 6  7  8  9  10  11  12  13  14  15  25  28  32  33  34  35 0
 6-311+G(2d,p)
 ****
 36  39  40 0
 6-311+G(2d,p)
 ****
 1  2  3  4  5  16  17  18  19  20  21  22  23  24 0
 3-21G
 ****
 26  27  29  30  31  37  38  41  42  43  44  45  46  47 0
 3-21G
 ****
 48 0
 3-21G
 ****


