%nproc=1
%NoSave
%Mem=1900MB
#P OB98/GEN NMR

erre ene a

0 1
  C     -388.523     -89.430    -131.490
  O     -387.136     -89.154    -131.368
  P     -386.278     -90.096    -130.382
  C     -385.878     -88.911    -128.109
  O     -386.749     -89.714    -128.901
  C     -386.173     -87.430    -128.320
  O     -387.547     -87.153    -127.971
  C     -385.343     -86.490    -127.461
  O     -384.048     -86.272    -128.016
  C     -386.181     -85.223    -127.516
  O     -385.901     -84.509    -128.737
  C     -387.614     -85.777    -127.530
  N     -391.880     -84.614    -125.042
  C     -391.586     -84.539    -126.394
  N     -392.586     -84.112    -127.199
  N     -390.424     -84.842    -126.905
  C     -389.533     -85.291    -125.986
  C     -389.700     -85.409    -124.621
  C     -390.974     -85.016    -124.060
  O     -391.265     -85.005    -122.870
  N     -388.572     -85.913    -124.025
  C     -387.740     -86.127    -125.026
  N     -388.266     -85.740    -126.234
  O     -384.810     -89.469    -130.477
  O     -386.292     -91.548    -130.728
  H     -386.345     -83.649    -128.671
  H     -384.141     -90.156    -130.265
  H     -392.789     -84.382    -124.704
  H     -386.753     -86.569    -124.922
  H     -388.240     -85.239    -128.249
  H     -385.962     -84.532    -126.687
  H     -393.538     -83.991    -126.877
  H     -385.282     -86.848    -126.426
  H     -392.406     -84.085    -128.192
  H     -386.047     -87.199    -129.389
  H     -384.843     -89.110    -128.404
  H     -385.996     -89.181    -127.059
  P     -382.917     -85.739    -127.007
  C     -382.313     -83.292    -127.627
  O     -383.158     -84.161    -126.897
  O     -381.570     -85.872    -127.868
  O     -382.839     -86.494    -125.721
  H     -380.800     -85.971    -127.280
  H     -382.037     -83.711    -128.594
  H     -381.410     -83.089    -127.044
  H     -382.840     -82.351    -127.792
  H     -388.967     -88.734    -132.171
  H     -388.990     -89.339    -130.532
  H     -388.657     -90.425    -131.859

 3  4  5  6  7  8  9  10  11  12  23  26  30  31  33  0
 6-311+G(2d,p)
 ****
 35  36  37  38 0
 6-311+G(2d,p)
 ****
 1  2  13  14  15  16  17  18  19  20  21  22  24  25  27  28  29 0
 3-21G
 ****
 32  34  39  40  41  42  43  44  45  46  47  48  49 0
 3-21G
 ****


