%nproc=1
%NoSave
%Mem=1900MB
#P OB98/GEN NMR

erre ene a

0 1
  C     -747.818     683.171     202.900
  O     -748.820     682.980     201.925
  H     -747.887     684.197     203.275
  H     -746.829     683.022     202.458
  H     -747.961     682.481     203.736
  P     -748.897     681.522     201.260
  C     -751.381     681.543     200.465
  O     -750.425     681.056     201.393
  C     -752.470     682.341     201.186
  O     -751.868     683.537     201.767
  C     -753.606     682.820     200.266
  O     -754.801     682.922     201.056
  C     -753.128     684.212     199.887
  O     -754.169     684.961     199.302
  C     -752.590     684.669     201.234
  N     -751.402     689.169     203.357
  C     -752.276     688.207     203.722
  N     -752.530     687.031     203.112
  C     -751.748     686.879     202.032
  C     -750.807     687.765     201.542
  C     -750.648     688.967     202.254
  N     -749.759     689.953     201.883
  N     -750.204     687.264     200.402
  C     -750.773     686.092     200.207
  N     -751.720     685.822     201.163
  O     -748.122     680.597     202.310
  O     -748.325     681.411     199.887
  H     -754.891     685.119     199.946
  H     -747.191     680.493     202.037
  H     -752.855     688.408     204.618
  H     -750.553     685.408     199.399
  H     -753.397     684.911     201.940
  H     -752.324     684.159     199.142
  H     -753.786     682.153     199.416
  H     -752.853     681.748     202.023
  H     -751.827     680.686     199.946
  H     -750.881     682.188     199.734
  H     -749.720     690.791     202.440
  H     -749.202     689.824     201.050
  P     -755.385     681.603     201.773
  C     -756.042     681.906     204.285
  O     -755.019     681.661     203.334
  O     -754.382     680.468     201.238
  O     -756.798     681.256     201.436
  H     -754.844     679.610     201.219
  H     -755.621     681.910     205.269
  H     -756.783     681.137     204.218
  H     -756.494     682.855     204.086

 6  7  8  9  10  11  12  13  14  15  25  28  32  33  34  35 0
 6-311+G(2d,p)
 ****
 36  37  40 0
 6-311+G(2d,p)
 ****
 1  2  3  4  5  16  17  18  19  20  21  22  23  24 0
 3-21G
 ****
 26  27  29  30  31  38  39 41  42  43  44  45  46  47  48 0
 3-21G
 ****


