%nproc=1
%NoSave
%Mem=1900MB
#P OB98/GEN NMR

erre ene a

0 1
  C       85.466      88.023     366.961
  O       85.808      86.839     367.638
  H       86.148      88.815     367.282
  H       84.446      88.327     367.210
  H       85.566      87.896     365.878
  P       84.937      85.509     367.388
  C       83.560      86.168     369.454
  O       84.310      85.137     368.825
  C       82.958      85.684     370.773
  O       81.928      84.690     370.503
  C       83.984      85.041     371.722
  O       83.817      85.566     373.045
  C       83.611      83.564     371.705
  O       84.027      82.872     372.878
  C       82.093      83.657     371.487
  N       81.525      82.385     371.064
  C       81.421      81.395     372.046
  O       81.796      81.624     373.198
  N       80.951      80.156     371.695
  C       80.654      79.914     370.453
  N       80.219      78.656     370.163
  C       80.775      80.921     369.378
  C       81.207      82.124     369.750
  O       85.674      84.399     366.713
  O       83.656      86.008     366.565
  H       83.484      83.182     373.635
  H       83.272      85.239     366.076
  H       80.516      80.666     368.359
  H       81.329      82.929     369.032
  H       81.584      83.980     372.410
  H       84.079      83.085     370.842
  H       85.017      85.193     371.408
  H       82.449      86.533     371.252
  H       80.156      77.996     370.930
  H       82.767      86.495     368.766
  H       79.979      78.343     369.236
  H       84.232      87.011     369.652
  P       84.838      86.722     373.483
  C       86.484      84.896     374.308
  O       85.819      86.118     374.597
  O       83.908      87.749     374.288
  O       85.511      87.393     372.323
  H       83.798      88.570     373.779
  H       87.099      84.620     375.139
  H       87.094      85.019     373.438
  H       85.759      84.129     374.130

 6  7  8  9  10  11  12  13  14  15  16  26  30  31  32  33  35 0
 6-311+G(2d,p)
 ****
 37  38 0
 6-311+G(2d,p)
 ****
 1  2  3  4  5  17  18  19  20  21  22  23  24  25 0
 3-21G
 ****
 27  28  29  34  36  39  40  41  42  43  44  45  46 0
 3-21G
 ****


