%nproc=1
%NoSave
%Mem=1900MB
#P OB98/GEN NMR

erre ene a

0 1
  C      187.525    -378.119      31.722
  O      186.397    -378.857      31.296
  H      187.635    -377.244      31.076
  H      188.422    -378.737      31.634
  H      187.403    -377.782      32.755
  P      185.854    -379.991      32.293
  C      184.126    -378.502      33.529
  O      185.340    -379.229      33.611
  C      183.269    -378.758      34.766
  O      182.764    -380.110      34.758
  C      184.012    -378.586      36.089
  O      184.057    -377.223      36.490
  C      183.123    -379.400      37.016
  O      181.940    -378.640      37.347
  C      182.749    -380.596      36.130
  N      184.184    -384.520      39.003
  C      183.260    -383.524      39.259
  N      182.640    -383.575      40.458
  N      182.977    -382.561      38.424
  C      183.693    -382.622      37.278
  C      184.637    -383.550      36.908
  C      184.930    -384.620      37.836
  O      185.728    -385.534      37.649
  N      185.152    -383.287      35.668
  C      184.536    -382.183      35.294
  N      183.644    -381.735      36.237
  O      187.204    -380.714      32.772
  O      184.902    -380.966      31.690
  H      181.444    -378.513      36.519
  H      187.298    -381.556      32.288
  H      184.372    -385.234      39.686
  H      184.694    -381.671      34.353
  H      181.739    -380.962      36.335
  H      183.615    -379.647      37.959
  H      182.829    -384.278      41.156
  H      185.013    -379.031      36.053
  H      181.960    -382.857      40.666
  H      182.404    -378.086      34.721
  H      183.575    -378.819      32.634
  H      184.356    -377.435      33.448
  P      185.156    -376.786      37.574
  C      186.608    -375.147      36.184
  O      186.499    -376.441      36.763
  O      185.501    -378.170      38.301
  O      184.708    -375.756      38.549
  H      185.175    -378.153      39.219
  H      187.547    -375.060      35.679
  H      186.546    -374.406      36.953
  H      185.812    -375.001      35.484

 6  7  8  9  10  11  12  13  14  15  26  29  33  34 0
 6-311+G(2d,p)
 ****
 36  38  39  40  41 0
 6-311+G(2d,p)
 ****
 1  2  3  4  5  16  17  18  19  20  21  22  23  24  25 0
 3-21G
 ****
 27  28  30  31  32  35  37  42  43  44  45  46  47 0
 3-21G
 ****
 48  49 0
 3-21G
 ****


