%nproc=1
%NoSave
%Mem=1900MB
#P OB98/GEN NMR

erre ene a

0 1
  C      -17.218    -266.643     143.593
  O      -17.167    -265.337     144.130
  H      -16.345    -266.789     142.951
  H      -18.118    -266.768     142.987
  H      -17.195    -267.392     144.390
  P      -18.284    -264.893     145.192
  C      -18.535    -262.696     146.502
  O      -18.261    -263.288     145.242
  C      -18.994    -261.250     146.328
  O      -17.875    -260.460     145.852
  C      -20.145    -261.084     145.330
  O      -21.023    -260.069     145.816
  C      -19.452    -260.600     144.072
  O      -20.318    -259.834     143.235
  C      -18.287    -259.793     144.644
  N      -15.513    -256.606     141.877
  C      -16.512    -256.351     142.795
  N      -16.842    -255.057     142.992
  N      -17.136    -257.285     143.464
  C      -16.695    -258.535     143.178
  C      -15.718    -258.916     142.290
  C      -15.042    -257.872     141.546
  O      -14.162    -258.037     140.711
  N      -15.577    -260.283     142.262
  C      -16.470    -260.723     143.129
  N      -17.181    -259.702     143.704
  O      -18.194    -265.554     146.530
  O      -19.667    -265.218     144.459
  H      -20.597    -259.048     143.753
  H      -20.040    -266.058     144.785
  H      -15.071    -255.848     141.385
  H      -16.646    -261.763     143.372
  H      -18.576    -258.764     144.896
  H      -19.088    -261.459     143.495
  H      -16.393    -254.283     142.526
  H      -20.701    -262.011     145.164
  H      -17.557    -254.844     143.680
  H      -19.267    -260.851     147.312
  H      -17.620    -262.723     147.102
  H      -19.311    -263.277     147.016
  P      -22.587    -260.397     145.943
  C      -24.644    -259.408     147.138
  O      -23.281    -259.215     146.779
  O      -22.923    -261.779     146.396
  O      -23.126    -260.130     144.454
  H      -23.891    -260.717     144.288
  H      -24.992    -258.559     147.688
  H      -24.732    -260.286     147.744
  H      -25.233    -259.525     146.252

 6  7  8  9  10  11  12  13  14  15  26  29  33  34 0
 6-311+G(2d,p)
 ****
 36  38  39  40  41 0
 6-311+G(2d,p)
 ****
 1  2  3  4  5  16  17  18  19  20  21  22  23  24  25 0
 3-21G
 ****
 27  28  30  31  32  35  37  42  43  44  45  46  47 0
 3-21G
 ****
 48  49 0
 3-21G
 ****


