%nproc=1
%NoSave
%Mem=1900MB
#P OB98/GEN NMR

erre ene a

0 1
  C       14.777     191.260    -723.193
  O       16.024     190.805    -723.689
  H       14.927     191.938    -722.347
  H       14.259     191.808    -723.994
  H       14.155     190.410    -722.887
  P       16.924     189.950    -722.676
  C       19.017     191.493    -722.625
  O       18.456     190.259    -723.068
  C       20.378     191.708    -723.283
  O       21.358     190.840    -722.682
  C       20.424     191.408    -724.776
  O       19.899     192.473    -725.552
  C       21.921     191.246    -724.991
  O       22.533     192.548    -725.074
  C       22.356     190.535    -723.704
  N       24.956     186.700    -725.899
  C       25.146     188.048    -725.887
  N       24.428     188.995    -725.265
  C       23.420     188.444    -724.576
  C       23.098     187.099    -724.467
  C       23.919     186.209    -725.179
  N       23.668     184.843    -725.223
  N       21.983     186.923    -723.675
  C       21.619     188.141    -723.334
  N       22.457     189.094    -723.844
  O       16.699     188.442    -723.182
  O       16.582     190.110    -721.233
  H       22.140     193.088    -724.359
  H       16.011     188.018    -722.636
  H       26.008     188.397    -726.472
  H       20.754     188.383    -722.721
  H       23.325     190.905    -723.331
  H       22.166     190.706    -725.915
  H       19.927     190.450    -725.023
  H       20.694     192.743    -723.083
  H       19.138     191.468    -721.534
  H       23.999     184.399    -726.079
  H       22.747     184.570    -724.897
  H       18.331     192.312    -722.894
  P       18.414     192.325    -726.135
  C       19.290     193.007    -728.469
  O       18.332     193.244    -727.446
  O       17.527     193.096    -725.059
  O       17.938     190.905    -726.310
  H       16.819     192.509    -724.713
  H       19.122     193.685    -729.279
  H       19.195     192.001    -728.820
  H       20.274     193.157    -728.077

 6  7  8  9  10  11  12  13  14  15  25  28  32  33  34  35 0
 6-311+G(2d,p)
 ****
 36  39  40 0
 6-311+G(2d,p)
 ****
 1  2  3  4  5  16  17  18  19  20  21  22  23  24 0
 3-21G
 ****
 26  27  29  30  31  37  38  41  42  43  44  45  46  47  48 0
 3-21G
 ****


