%nproc=1
%NoSave
%Mem=1900MB
#P OB98/GEN NMR

erre ene a

0 1
  C     -202.537    -199.831    -315.148
  O     -201.168    -199.479    -315.159
  H     -203.039    -199.323    -315.974
  H     -202.998    -199.514    -314.209
  H     -202.656    -200.912    -315.274
  P     -200.219    -200.210    -314.094
  C     -197.858    -199.963    -315.172
  O     -198.785    -199.493    -314.202
  C     -198.175    -199.346    -316.533
  O     -198.045    -197.901    -316.430
  C     -197.231    -199.814    -317.647
  O     -197.970    -199.934    -318.865
  C     -196.236    -198.669    -317.762
  O     -195.591    -198.598    -319.025
  C     -197.136    -197.470    -317.464
  N     -196.387    -196.291    -317.037
  C     -196.004    -195.381    -318.021
  O     -196.320    -195.461    -319.208
  N     -195.222    -194.340    -317.590
  C     -194.773    -194.141    -316.314
  O     -194.054    -193.199    -315.997
  C     -195.205    -195.137    -315.324
  C     -195.974    -196.151    -315.724
  O     -199.957    -201.646    -314.754
  O     -200.759    -200.304    -312.707
  H     -200.634    -202.285    -314.460
  H     -196.285    -198.606    -319.720
  H     -194.934    -193.673    -318.288
  H     -194.862    -195.015    -314.306
  H     -196.297    -196.912    -315.023
  H     -197.745    -197.216    -318.348
  H     -195.459    -198.772    -316.993
  H     -196.737    -200.757    -317.418
  H     -199.223    -199.557    -316.789
  H     -197.936    -201.055    -315.243
  H     -196.845    -199.699    -314.862
  P     -198.436    -201.412    -319.301
  C     -200.137    -200.635    -321.131
  O     -198.911    -201.289    -320.830
  O     -199.792    -201.570    -318.473
  O     -197.397    -202.452    -319.034
  H     -200.307    -200.746    -318.405
  H     -200.296    -200.644    -322.189
  H     -200.096    -199.623    -320.785
  H     -200.942    -201.145    -320.645

 6  7  8  9  10  11  12  13  14  15  16  27  31  32  33  34  35 0
 6-311+G(2d,p)
 ****
 36  37 0
 6-311+G(2d,p)
 ****
 1  2  3  4  5  17  18  19  20  21  22  23  24  25 0
 3-21G
 ****
 26  28  29  30  38  39  40  41  42  43  44  45 0
 3-21G
 ****


