%nproc=1
%NoSave
%Mem=1900MB
#P OB98/GEN NMR

erre ene a

0 1
  C      -36.019    -335.956     -17.189
  O      -37.424    -335.667     -17.207
  P      -38.049    -334.897     -15.948
  C      -37.996    -332.444     -15.073
  O      -37.862    -333.319     -16.185
  C      -37.745    -330.996     -15.506
  O      -36.408    -330.817     -16.027
  C      -38.686    -330.511     -16.598
  O      -39.933    -330.076     -16.068
  C      -37.913    -329.317     -17.143
  O      -38.107    -328.177     -16.283
  C      -36.461    -329.808     -17.068
  N      -35.034    -328.748     -21.805
  C      -35.438    -327.907     -20.791
  N      -35.461    -326.583     -21.075
  N      -35.790    -328.321     -19.600
  C      -35.703    -329.660     -19.455
  C      -35.317    -330.605     -20.383
  C      -34.941    -330.132     -21.701
  O      -34.586    -330.834     -22.646
  N      -35.360    -331.870     -19.866
  C      -35.755    -331.701     -18.618
  N      -35.992    -330.382     -18.322
  O      -36.993    -335.206     -14.781
  O      -39.428    -335.339     -15.578
  H      -37.347    -327.578     -16.437
  H      -37.441    -335.183     -13.916
  H      -34.776    -328.376     -22.707
  H      -35.879    -332.499     -17.893
  H      -35.763    -329.008     -16.794
  H      -38.253    -329.023     -18.142
  H      -35.156    -326.191     -21.950
  H      -38.811    -331.271     -17.381
  H      -35.727    -325.951     -20.331
  H      -37.862    -330.352     -14.620
  H      -37.293    -332.722     -14.283
  H      -38.994    -332.570     -14.644
  P      -41.162    -331.112     -16.099
  C      -42.018    -332.972     -14.504
  O      -41.034    -331.993     -14.769
  O      -40.747    -332.119     -17.272
  O      -42.493    -330.488     -16.350
  H      -41.547    -332.458     -17.722
  H      -41.686    -333.579     -13.652
  H      -42.160    -333.627     -15.368
  H      -42.968    -332.493     -14.244
  H      -35.749    -336.469     -18.088
  H      -35.793    -336.573     -16.345
  H      -35.468    -335.042     -17.120

 3  4  5  6  7  8  9  10  11  12  23  26  30  31 0
 6-311+G(2d,p)
 ****
 33  35  36  37  38 0
 6-311+G(2d,p)
 ****
 1  2  13  14  15  16  17  18  19  20  21  22  24  25 0
 3-21G
 ****
 27  28  29  32  34  39  40  41  42  43  44  45  46  47  48  49 0
 3-21G
 ****


