%nproc=1
%NoSave
%Mem=1900MB
#P OB98/GEN NMR

erre ene a

0 1
  C      699.959    -389.512     145.332
  O      699.964    -390.616     144.411
  P      700.911    -391.884     144.721
  C      699.028    -393.663     145.076
  O      700.109    -392.933     145.633
  C      698.657    -394.838     145.976
  O      698.655    -394.436     147.364
  C      697.265    -395.418     145.737
  O      697.224    -396.225     144.573
  C      697.018    -396.187     147.032
  O      697.643    -397.487     146.977
  C      697.726    -395.281     148.070
  N      696.784    -394.507     148.866
  C      696.109    -395.191     149.873
  O      696.230    -396.409     150.067
  N      695.257    -394.448     150.645
  C      694.955    -393.122     150.464
  O      694.165    -392.512     151.170
  C      695.642    -392.473     149.329
  C      696.498    -393.182     148.597
  O      701.964    -391.265     145.774
  O      701.630    -392.456     143.534
  H      697.701    -397.814     147.897
  H      702.811    -391.743     145.709
  H      694.777    -394.930     151.398
  H      695.418    -391.426     149.136
  H      697.005    -392.709     147.764
  H      698.330    -395.907     148.740
  H      695.955    -396.349     147.223
  H      696.531    -394.592     145.663
  H      699.421    -395.621     145.856
  H      699.327    -394.043     144.091
  H      698.180    -392.990     144.942
  P      696.458    -395.621     143.290
  C      698.711    -395.179     142.038
  O      697.514    -394.657     142.578
  O      695.402    -394.642     144.004
  O      695.837    -396.678     142.423
  H      695.768    -394.239     144.823
  H      698.570    -396.195     141.644
  H      699.481    -395.198     142.828
  H      699.051    -394.529     141.232
  H      699.283    -388.759     144.983
  H      700.945    -389.102     145.402
  H      699.645    -389.853     146.296

 3  4  5  6  7  8  9  10  11  12  13  23  28  29  30  31  32 0
 6-311+G(2d,p)
 ****
 33  34 0
 6-311+G(2d,p)
 ****
 1  2  14  15  16  17  18  19  20  21  22  24  25  26 0
 3-21G
 ****
 27  35  36  37  38  39  40  41  42  43  44  45 0
 3-21G
 ****


