%nproc=1
%NoSave
%Mem=1900MB
#P OB98/GEN NMR

erre ene a

0 1
  C     -420.905     -15.034      26.272
  O     -420.609     -14.894      24.905
  H     -420.112     -14.548      26.847
  H     -420.936     -16.090      26.552
  H     -421.858     -14.551      26.509
  P     -421.508     -15.681      23.825
  C     -420.230     -17.903      23.948
  O     -421.442     -17.225      24.276
  C     -419.911     -19.001      24.969
  O     -420.948     -20.015      24.934
  C     -418.573     -19.702      24.714
  O     -417.849     -19.808      25.949
  C     -418.983     -21.094      24.221
  O     -417.960     -22.056      24.448
  C     -420.295     -21.291      24.989
  N     -421.119     -22.349      24.414
  C     -420.577     -23.639      24.401
  O     -419.431     -23.827      24.815
  N     -421.312     -24.665      23.876
  C     -422.482     -24.427      23.357
  N     -423.158     -25.491      22.845
  C     -423.084     -23.078      23.315
  C     -422.359     -22.094      23.864
  O     -421.139     -15.428      22.400
  O     -423.014     -15.264      24.181
  H     -417.733     -22.052      25.409
  H     -423.594     -15.434      23.392
  H     -424.053     -22.928      22.869
  H     -422.724     -21.076      23.880
  H     -420.104     -21.543      26.038
  H     -419.175     -21.049      23.141
  H     -417.943     -19.196      23.983
  H     -419.947     -18.556      25.972
  H     -422.712     -26.399      22.906
  H     -419.420     -17.173      23.906
  H     -424.070     -25.425      22.420
  H     -420.350     -18.363      22.959
  P     -416.392     -19.138      25.969
  C     -415.003     -21.225      25.298
  O     -415.459     -19.931      24.928
  O     -415.814     -19.553      27.405
  O     -416.413     -17.651      25.795
  H     -415.901     -18.811      28.027
  H     -414.397     -21.628      24.513
  H     -415.844     -21.866      25.464
  H     -414.425     -21.156      26.196

 6  7  8  9  10  11  12  13  14  15  16  26  30  31  32  33  35 0
 6-311+G(2d,p)
 ****
 37  38 0
 6-311+G(2d,p)
 ****
 1  2  3  4  5  17  18  19  20  21  22  23  24  25 0
 3-21G
 ****
 27  28  29  34  36  39  40  41  42  43  44  45  46 0
 3-21G
 ****


