%nproc=1
%NoSave
%Mem=1900MB
#P OB98/GEN NMR

erre ene a

0 1
  C      113.636     461.905     -62.414
  O      112.998     462.978     -61.746
  H      113.865     461.130     -61.681
  H      114.570     462.248     -62.872
  H      112.974     461.496     -63.182
  P      112.626     464.259     -62.638
  C      114.963     465.366     -62.645
  O      113.993     464.627     -63.396
  C      115.655     466.403     -63.534
  O      114.661     467.388     -63.949
  C      116.787     467.157     -62.825
  O      117.828     467.434     -63.766
  C      116.130     468.466     -62.425
  O      117.078     469.522     -62.229
  C      115.162     468.695     -63.582
  N      113.882     473.581     -62.953
  C      114.970     472.995     -63.504
  N      115.218     471.675     -63.650
  C      114.177     470.941     -63.221
  C      113.000     471.395     -62.652
  C      112.871     472.791     -62.514
  N      111.783     473.400     -61.938
  N      112.190     470.328     -62.299
  C      112.857     469.250     -62.663
  N      114.070     469.573     -63.215
  O      111.976     465.392     -61.909
  O      111.749     463.607     -63.811
  H      116.595     470.345     -62.025
  H      112.173     462.807     -64.167
  H      115.746     473.669     -63.863
  H      112.527     468.218     -62.553
  H      115.653     469.133     -64.463
  H      115.586     468.342     -61.482
  H      117.202     466.620     -61.970
  H      116.007     465.906     -64.444
  H      115.708     464.680     -62.227
  H      111.773     474.405     -61.877
  H      111.014     472.837     -61.599
  H      114.441     465.861     -61.812
  P      118.897     466.283     -64.097
  C      120.375     466.483     -61.988
  O      119.450     465.677     -62.719
  O      119.955     466.641     -65.089
  O      117.974     465.091     -64.652
  H      118.418     464.675     -65.429
  H      120.666     465.971     -61.095
  H      119.912     467.413     -61.731
  H      121.239     466.669     -62.590

 6  7  8  9  10  11  12  13  14  15  25  28  32  33  34  35 0
 6-311+G(2d,p)
 ****
 36  39  40 0
 6-311+G(2d,p)
 ****
 1  2  3  4  5  16  17  18  19  20  21  22  23  24 0
 3-21G
 ****
 26  27  29  30  31  37  38  41  42  43  44  45  46  47 0
 3-21G
 ****
 48 0
 3-21G
 ****


