%nproc=1
%NoSave
%Mem=1900MB
#P OB98/GEN NMR

erre ene a

0 1
  C     -509.815    -735.771     -75.262
  O     -510.468    -735.172     -76.359
  H     -509.231    -736.622     -75.619
  H     -510.557    -736.134     -74.545
  H     -509.140    -735.063     -74.771
  P     -511.128    -733.731     -76.118
  C     -511.042    -732.370     -78.321
  O     -511.783    -733.271     -77.512
  C     -510.018    -733.128     -79.163
  O     -510.674    -734.254     -79.800
  C     -509.366    -732.283     -80.266
  O     -507.989    -732.635     -80.376
  C     -510.111    -732.712     -81.520
  O     -509.341    -732.508     -82.705
  C     -510.400    -734.177     -81.209
  N     -511.707    -737.141     -85.073
  C     -510.474    -736.930     -84.485
  N     -509.431    -737.611     -85.006
  N     -510.284    -736.126     -83.470
  C     -511.425    -735.542     -83.030
  C     -512.702    -735.661     -83.529
  C     -512.895    -736.532     -84.669
  O     -513.956    -736.740     -85.248
  N     -513.585    -734.879     -82.827
  C     -512.842    -734.290     -81.905
  N     -511.529    -734.665     -81.983
  O     -509.858    -732.768     -75.966
  O     -512.032    -733.632     -74.936
  H     -508.561    -733.103     -82.653
  H     -509.833    -732.394     -75.064
  H     -511.797    -737.756     -85.861
  H     -513.201    -733.585     -81.170
  H     -509.548    -734.825     -81.434
  H     -511.038    -732.135     -81.617
  H     -509.514    -738.279     -85.750
  H     -509.457    -731.206     -80.088
  H     -508.526    -737.504     -84.566
  H     -509.255    -733.542     -78.492
  H     -510.525    -731.654     -77.677
  H     -511.731    -731.827     -78.979
  P     -506.919    -731.553     -79.868
  C     -504.851    -732.901     -79.085
  O     -505.447    -732.140     -80.128
  O     -507.071    -731.606     -78.276
  O     -507.157    -730.174     -80.391
  H     -507.518    -730.797     -77.956
  H     -503.879    -733.227     -79.392
  H     -505.462    -733.753     -78.871
  H     -504.763    -732.296     -78.207

 6  7  8  9  10  11  12  13  14  15  26  29  33  34 0
 6-311+G(2d,p)
 ****
 36  38  39  40  41 0
 6-311+G(2d,p)
 ****
 1  2  3  4  5  16  17  18  19  20  21  22  23  24  25 0
 3-21G
 ****
 27  28  30  31  32  35  37  42  43  44  45  46  47 0
 3-21G
 ****
 48  49 0
 3-21G
 ****


