%nproc=1
%NoSave
%Mem=1900MB
#P OB98/GEN NMR

erre ene a

0 1
  C      352.136    -450.138    -448.492
  O      351.617    -451.452    -448.643
  H      351.309    -449.465    -448.247
  H      352.585    -449.804    -449.427
  H      352.873    -450.104    -447.686
  P      352.638    -452.654    -448.911
  C      352.677    -453.586    -446.514
  O      353.415    -452.923    -447.528
  C      353.376    -454.881    -446.108
  O      354.698    -454.566    -445.602
  C      352.633    -455.667    -445.018
  O      352.758    -457.064    -445.294
  C      353.395    -455.323    -443.751
  O      353.289    -456.344    -442.763
  C      354.819    -455.138    -444.288
  N      358.377    -455.103    -440.697
  C      357.854    -456.156    -441.432
  N      358.333    -457.387    -441.145
  N      356.943    -456.006    -442.356
  C      356.568    -454.726    -442.537
  C      357.006    -453.601    -441.883
  C      357.997    -453.774    -440.854
  O      358.489    -452.879    -440.169
  N      356.357    -452.472    -442.343
  C      355.534    -452.918    -443.269
  N      355.613    -454.278    -443.424
  O      353.531    -452.488    -450.097
  O      351.690    -453.937    -449.057
  H      352.363    -456.323    -442.424
  H      351.554    -454.162    -449.991
  H      359.068    -455.272    -439.995
  H      354.859    -452.314    -443.853
  H      355.352    -456.091    -444.369
  H      353.011    -454.388    -443.326
  H      359.049    -457.568    -440.461
  H      351.575    -455.400    -444.946
  H      357.983    -458.173    -441.686
  H      353.518    -455.500    -447.000
  H      351.675    -453.809    -446.903
  H      352.578    -452.924    -445.645
  P      351.434    -457.950    -445.427
  C      352.024    -458.853    -447.767
  O      351.091    -458.108    -446.988
  O      350.290    -457.537    -444.563
  O      351.946    -459.420    -445.033
  H      351.210    -459.916    -444.625
  H      351.691    -458.890    -448.783
  H      352.098    -459.848    -447.380
  H      352.983    -458.381    -447.723

 6  7  8  9  10  11  12  13  14  15  26  29  33  34 0
 6-311+G(2d,p)
 ****
 36  38  39  40  41 0
 6-311+G(2d,p)
 ****
 1  2  3  4  5  16  17  18  19  20  21  22  23  24  25 0
 3-21G
 ****
 27  28  30  31  32  35  37  42  43  44  45  46  47 0
 3-21G
 ****
 48  49 0
 3-21G
 ****


