%nproc=1
%NoSave
%Mem=1900MB
#P OB98/GEN NMR

erre ene a

0 1
  C     -170.007     115.929      38.924
  O     -169.518     117.088      38.280
  H     -169.403     115.074      38.607
  H     -171.046     115.745      38.640
  H     -169.927     116.029      40.009
  P     -170.242     118.490      38.576
  C     -172.585     119.419      37.974
  O     -171.618     118.406      37.746
  C     -173.521     119.533      36.775
  O     -172.848     120.110      35.636
  C     -174.070     118.206      36.261
  O     -175.065     117.636      37.095
  C     -174.627     118.654      34.922
  O     -175.862     119.363      35.124
  C     -173.506     119.604      34.440
  N     -172.540     118.938      33.566
  C     -172.703     119.129      32.189
  O     -173.624     119.819      31.756
  N     -171.834     118.505      31.326
  C     -170.901     117.735      31.794
  N     -170.073     117.136      30.894
  C     -170.705     117.490      33.237
  C     -171.545     118.115      34.055
  O     -169.420     119.715      38.334
  O     -170.767     118.361      40.082
  H     -176.520     118.707      35.419
  H     -171.214     119.210      40.320
  H     -169.931     116.817      33.575
  H     -171.471     117.980      35.130
  H     -173.925     120.467      33.910
  H     -174.837     117.825      34.243
  H     -173.258     117.491      36.078
  H     -174.330     120.222      37.055
  H     -170.232     117.322      29.913
  H     -172.057     120.362      38.152
  H     -169.368     116.464      31.165
  H     -173.183     119.175      38.857
  P     -174.963     116.055      37.374
  C     -175.233     113.972      35.822
  O     -175.555     115.330      36.075
  O     -176.073     115.815      38.498
  O     -173.609     115.569      37.789
  H     -175.666     115.779      39.385
  H     -175.711     113.654      34.919
  H     -175.572     113.367      36.637
  H     -174.173     113.870      35.719

 6  7  8  9  10  11  12  13  14  15  16  26  30  31  32  33  35 0
 6-311+G(2d,p)
 ****
 37  38 0
 6-311+G(2d,p)
 ****
 1  2  3  4  5  17  18  19  20  21  22  23  24  25 0
 3-21G
 ****
 27  28  29  34  36  39  40  41  42  43  44  45  46 0
 3-21G
 ****


