%nproc=1
%NoSave
%Mem=1900MB
#P OB98/GEN NMR

erre ene a

0 1
  C       -8.870       7.979    -259.599
  O       -8.082       7.281    -260.549
  P       -8.114       7.683    -262.107
  C      -10.083       7.943    -263.759
  O       -9.578       7.275    -262.611
  C      -11.611       7.907    -263.756
  O      -12.111       8.783    -262.722
  C      -12.257       8.378    -265.047
  O      -12.172       7.377    -266.053
  C      -13.665       8.705    -264.563
  O      -14.447       7.502    -264.445
  C      -13.392       9.293    -263.167
  N      -13.417      10.754    -263.149
  C      -14.331      11.350    -262.272
  O      -15.056      10.672    -261.553
  N      -14.366      12.724    -262.203
  C      -13.586      13.434    -262.961
  N      -13.626      14.790    -262.802
  C      -12.653      12.848    -263.936
  C      -12.613      11.511    -263.974
  O       -6.999       7.123    -262.918
  O       -8.174       9.277    -262.109
  H      -15.296       7.756    -264.032
  H       -7.285       9.711    -262.094
  H      -12.030      13.483    -264.553
  H      -11.939      11.001    -264.647
  H      -14.131       8.917    -262.447
  H      -14.209       9.389    -265.228
  H      -11.769       9.295    -265.413
  H      -11.928       6.884    -263.515
  H      -14.146      15.137    -262.004
  H       -9.717       7.430    -264.653
  H      -12.868      15.381    -263.124
  H       -9.715       8.974    -263.768
  P      -11.937       7.862    -267.563
  C      -13.017       9.946    -268.678
  O      -13.224       8.757    -267.941
  O      -12.119       6.519    -268.416
  O      -10.615       8.514    -267.802
  H      -11.245       6.157    -268.665
  H      -13.978      10.296    -269.057
  H      -12.352       9.762    -269.532
  H      -12.587      10.718    -268.035
  H       -8.708       7.563    -258.627
  H       -9.904       7.889    -259.858
  H       -8.592       9.012    -259.595

 3  4  5  6  7  8  9  10  11  12  13  23  27  28  29  30  32 0
 6-311+G(2d,p)
 ****
 34  35 0
 6-311+G(2d,p)
 ****
 1  2  14  15  16  17  18  19  20  21  22  24  25  26 0
 3-21G
 ****
 31  33  36  37  38  39  40  41  42  43  44  45  46 0
 3-21G
 ****


