%nproc=1
%NoSave
%Mem=1900MB
#P OB98/GEN NMR

erre ene a

0 1
  C     -898.951    -608.962    -893.320
  O     -898.271    -608.069    -894.180
  P     -896.691    -608.029    -893.960
  C     -896.031    -609.489    -896.010
  O     -896.041    -609.383    -894.610
  C     -895.351    -610.790    -896.490
  O     -893.911    -610.722    -896.330
  C     -895.881    -612.033    -895.780
  O     -895.851    -613.173    -896.630
  C     -894.731    -612.292    -894.650
  O     -894.821    -613.585    -894.210
  C     -893.531    -611.837    -895.510
  N     -892.411    -611.544    -894.700
  C     -891.101    -612.110    -895.100
  O     -891.061    -612.876    -896.050
  N     -889.991    -611.738    -894.400
  C     -890.091    -610.973    -893.340
  N     -888.941    -610.694    -892.660
  C     -891.431    -610.450    -892.850
  C     -892.481    -610.735    -893.560
  O     -896.481    -608.225    -892.380
  O     -896.071    -606.745    -894.430
  H     -894.241    -614.199    -894.940
  H     -895.881    -607.549    -892.050
  H     -891.441    -609.804    -891.970
  H     -893.501    -610.402    -893.330
  H     -893.231    -612.704    -896.240
  H     -894.911    -611.521    -893.800
  H     -896.861    -611.955    -895.290
  H     -895.571    -610.937    -897.590
  H     -888.101    -611.039    -893.060
  H     -895.481    -608.646    -896.460
  H     -888.951    -610.089    -891.840
  H     -897.041    -609.456    -896.360
  P     -897.361    -613.776    -897.010
  C     -897.241    -612.548    -899.300
  O     -897.851    -612.709    -898.090
  O     -898.141    -613.451    -895.710
  O     -897.361    -615.183    -897.450
  H     -899.071    -613.794    -895.820
  H     -897.821    -611.912    -900.000
  H     -897.131    -613.563    -899.810
  H     -896.241    -612.156    -899.210
  H     -900.000    -608.930    -893.530
  H     -898.782    -608.676    -892.303
  H     -898.586    -609.956    -893.477

 3  4  5  6  7  8  9  10  11  12  13  21  23  27  28  29  30  32 0
 6-311+G(2d,p)
 ****
 34  35 0
 6-311+G(2d,p)
 ****
 1  2  14  15  16  17  18  19  20  22  24  25  26 0
 3-21G
 ****
 31  33  36  37  38  39  40  41  42  43  44  45  46 0
 3-21G
 ****


