%nproc=1
%NoSave
%Mem=1900MB
#P OB98/GEN NMR

erre ene a

0 1
  C     -931.420     208.495    -307.675
  O     -930.051     208.239    -307.343
  P     -928.903     207.940    -308.401
  C     -926.677     208.952    -307.452
  O     -927.511     207.813    -307.601
  C     -925.292     208.604    -306.877
  O     -925.392     208.305    -305.462
  C     -924.754     207.322    -307.546
  O     -924.091     207.397    -308.796
  C     -923.930     206.644    -306.438
  O     -922.549     207.000    -306.510
  C     -924.575     207.182    -305.155
  N     -924.421     202.946    -302.287
  C     -923.373     203.616    -302.886
  N     -922.140     203.082    -302.754
  N     -923.538     204.722    -303.579
  C     -924.818     205.100    -303.697
  C     -925.944     204.517    -303.163
  C     -925.766     203.322    -302.355
  O     -926.649     202.692    -301.785
  N     -927.102     205.183    -303.521
  C     -926.666     206.164    -304.302
  N     -925.301     206.176    -304.438
  O     -928.906     208.790    -309.639
  O     -929.216     206.408    -308.854
  H     -922.201     206.673    -307.366
  H     -928.947     206.340    -309.787
  H     -924.256     202.108    -301.738
  H     -927.314     206.905    -304.771
  H     -923.785     207.560    -304.472
  H     -923.986     205.567    -306.547
  H     -921.974     202.172    -302.330
  H     -925.599     206.667    -307.706
  H     -921.426     203.449    -303.369
  H     -924.615     209.447    -306.967
  H     -927.194     209.655    -306.787
  H     -926.560     209.460    -308.412
  P     -924.779     207.189    -310.233
  C     -924.758     209.703    -310.786
  O     -924.318     208.419    -311.190
  O     -926.343     207.534    -309.962
  O     -924.625     205.837    -310.826
  H     -926.876     207.204    -310.695
  H     -924.650     210.406    -311.627
  H     -924.116     210.075    -309.967
  H     -925.802     209.704    -310.447
  H     -931.979     208.665    -306.778
  H     -931.825     207.651    -308.193
  H     -931.479     209.361    -308.301

 3  4  5  6  7  8  9  10  11  12  23  26  30  31 0
 6-311+G(2d,p)
 ****
 33  35  36  37  38 0
 6-311+G(2d,p)
 ****
 1  2  13  14  15  16  17  18  19  20  21  22  24  25 0
 3-21G
 ****
 27  28  29  32  34  39  40  41  42  43  44  45  46  47  48  49 0
 3-21G
 ****


