%nproc=1
%NoSave
%Mem=1900MB
#P OB98/GEN NMR

erre ene a

0 1
  C      -80.226    -192.304      -8.265
  O      -78.928    -191.869      -7.848
  P      -78.717    -191.686      -6.264
  C      -79.269    -194.146      -5.658
  O      -78.296    -193.113      -5.656
  C      -78.641    -195.511      -5.348
  O      -77.607    -195.846      -6.327
  C      -77.987    -195.592      -3.961
  O      -78.185    -196.932      -3.486
  C      -76.516    -195.385      -4.271
  O      -75.683    -195.845      -3.205
  C      -76.410    -196.174      -5.580
  N      -71.399    -196.750      -5.796
  C      -72.288    -197.108      -4.808
  N      -71.781    -197.764      -3.743
  N      -73.571    -196.852      -4.860
  C      -73.950    -196.224      -6.004
  C      -73.161    -195.828      -7.062
  C      -71.736    -196.091      -6.977
  O      -70.903    -195.795      -7.825
  N      -73.911    -195.250      -8.065
  C      -75.139    -195.240      -7.568
  N      -75.222    -195.869      -6.352
  O      -80.207    -191.466      -5.724
  O      -77.820    -190.546      -5.904
  H      -74.756    -195.614      -3.438
  H      -80.371    -190.517      -5.564
  H      -70.414    -196.955      -5.695
  H      -76.002    -194.816      -8.056
  H      -76.397    -197.260      -5.411
  H      -76.307    -194.321      -4.440
  H      -70.809    -198.039      -3.661
  H      -78.373    -194.869      -3.236
  H      -72.422    -198.078      -3.020
  H      -79.426    -196.278      -5.429
  H      -79.764    -194.194      -6.634
  H      -80.054    -193.900      -4.934
  P      -79.101    -197.139      -2.183
  C      -81.264    -197.622      -3.527
  O      -80.308    -198.110      -2.606
  O      -79.811    -195.709      -2.014
  O      -78.356    -197.518      -0.945
  H      -79.875    -195.489      -1.064
  H      -81.709    -198.471      -4.055
  H      -80.814    -196.950      -4.266
  H      -82.057    -197.090      -2.988
  H      -80.248    -192.390      -9.331
  H      -80.959    -191.592      -7.949
  H      -80.441    -193.256      -7.826

 3  4  5  6  7  8  9  10  11  12  23  26  30  31 0
 6-311+G(2d,p)
 ****
 33  35  36  37  38 0
 6-311+G(2d,p)
 ****
 1  2  13  14  15  16  17  18  19  20  21  22  24  25 0
 3-21G
 ****
 27  28  29  32  34  39  40  41  42  43  44  45  46  47  48  49 0
 3-21G
 ****


