%nproc=1
%NoSave
%Mem=1900MB
#P OB98/GEN NMR

erre ene a

0 1
  C      442.078     199.491     -62.617
  O      442.100     200.713     -63.334
  H      441.048     199.240     -62.360
  H      442.485     198.704     -63.257
  H      442.684     199.563     -61.713
  P      441.835     202.059     -62.503
  C      444.174     203.135     -62.832
  O      442.788     203.185     -63.142
  C      445.004     203.629     -64.011
  O      445.091     202.560     -65.003
  C      444.431     204.868     -64.722
  O      445.516     205.721     -65.102
  C      443.788     204.294     -65.972
  O      443.702     205.245     -67.030
  C      444.723     203.122     -66.272
  N      444.500     201.277     -71.012
  C      445.416     202.049     -70.385
  N      445.425     202.446     -69.100
  C      444.384     201.918     -68.427
  C      443.377     201.113     -68.932
  C      443.451     200.802     -70.296
  N      442.489     200.074     -70.959
  N      442.463     200.819     -67.936
  C      442.893     201.457     -66.861
  N      444.052     202.139     -67.112
  O      442.533     201.734     -61.093
  O      440.403     202.446     -62.344
  H      443.119     205.975     -66.748
  H      441.892     201.285     -60.506
  H      446.245     202.394     -70.996
  H      442.393     201.489     -65.908
  H      445.633     203.435     -66.796
  H      442.776     203.938     -65.739
  H      443.718     205.434     -64.108
  H      446.031     203.822     -63.667
  H      444.453     202.100     -62.605
  H      442.575     199.991     -71.960
  H      441.656     199.810     -70.466
  H      444.368     203.752     -61.948
  P      445.166     207.230     -65.520
  C      446.651     208.367     -63.704
  O      446.387     208.175     -65.098
  O      444.006     207.634     -64.495
  O      444.714     207.373     -66.942
  H      443.381     208.249     -64.916
  H      447.491     209.019     -63.587
  H      446.866     207.423     -63.248
  H      445.793     208.803     -63.235

 6  7  8  9  10  11  12  13  14  15  25  28  32  33  34  35 0
 6-311+G(2d,p)
 ****
 36  39  40 0
 6-311+G(2d,p)
 ****
 1  2  3  4  5  16  17  18  19  20  21  22  23  24 0
 3-21G
 ****
 26  27  29  30  31  37  38  41  42  43  44  45  46  47 0
 3-21G
 ****
 48 0
 3-21G
 ****


