%nproc=1
%NoSave
%Mem=1900MB
#P OB98/GEN NMR

erre ene a

0 1
  C     1101.600    1133.063     -91.374
  O     1100.377    1132.959     -90.677
  H     1102.255    1133.747     -90.829
  H     1101.447    1133.452     -92.378
  H     1102.091    1132.083     -91.425
  P     1099.197    1132.093     -91.335
  C     1097.499    1133.171     -89.713
  O     1098.045    1131.966     -90.222
  C     1097.397    1133.131     -88.187
  O     1098.731    1133.196     -87.623
  C     1096.569    1134.278     -87.584
  O     1095.963    1133.804     -86.375
  C     1097.664    1135.289     -87.260
  O     1097.205    1136.296     -86.407
  C     1098.748    1134.346     -86.744
  N     1100.070    1134.975     -86.696
  C     1100.272    1135.923     -85.694
  O     1099.373    1136.189     -84.896
  N     1101.483    1136.554     -85.615
  C     1102.392    1136.309     -86.522
  N     1103.566    1136.984     -86.403
  C     1102.187    1135.358     -87.641
  C     1101.023    1134.738     -87.657
  O     1099.613    1130.800     -91.948
  O     1098.549    1133.077     -92.420
  H     1096.360    1136.672     -86.737
  H     1098.835    1132.817     -93.311
  H     1102.976    1135.219     -88.380
  H     1100.781    1134.015     -88.451
  H     1098.510    1133.999     -85.727
  H     1098.001    1135.783     -88.190
  H     1095.814    1134.672     -88.263
  H     1096.969    1132.149     -87.902
  H     1103.665    1137.635     -85.619
  H     1096.509    1133.290     -90.157
  H     1104.339    1136.896     -87.057
  H     1098.118    1134.030     -90.010
  P     1094.383    1133.605     -86.212
  C     1093.577    1135.162     -84.326
  O     1093.974    1133.857     -84.679
  O     1093.856    1132.335     -86.789
  O     1093.728    1134.863     -86.972
  H     1092.874    1134.595     -87.342
  H     1093.334    1135.191     -83.284
  H     1092.719    1135.442     -84.901
  H     1094.377    1135.844     -84.525

 6  7  8  9  10  11  12  13  14  15  16  26  30  31  32  33  35 0
 6-311+G(2d,p)
 ****
 37  38 0
 6-311+G(2d,p)
 ****
 1  2  3  4  5  17  18  19  20  21  22  23  24  25 0
 3-21G
 ****
 27  28  29  34  36  39  40  41  42  43  44  45  46 0
 3-21G
 ****


