%nproc=1
%NoSave
%Mem=1900MB
#P OB98/GEN NMR

erre ene a

0 1
  C       88.295     -37.263      10.106
  O       89.337     -36.437      10.583
  P       89.104     -34.877      10.876
  C       89.983     -34.346       8.519
  O       88.915     -34.187       9.439
  C       89.664     -33.690       7.174
  O       88.473     -34.301       6.606
  C       89.420     -32.176       7.244
  O       89.917     -31.632       6.017
  C       87.907     -32.091       7.290
  O       87.418     -30.808       6.923
  C       87.525     -33.241       6.349
  N       86.146     -33.674       6.546
  C       85.203     -33.206       5.629
  O       85.533     -32.402       4.754
  N       83.898     -33.611       5.755
  C       83.550     -34.337       6.771
  N       82.245     -34.713       6.840
  C       84.489     -34.749       7.830
  C       85.761     -34.399       7.650
  O       90.128     -34.237      11.750
  O       87.625     -34.824      11.483
  H       87.522     -30.207       7.692
  H       87.629     -35.121      12.427
  H       84.142     -35.306       8.686
  H       86.523     -34.657       8.371
  H       87.646     -32.940       5.300
  H       87.556     -32.302       8.308
  H       89.895     -31.695       8.102
  H       90.494     -33.903       6.490
  H       81.637     -34.421       6.085
  H       90.135     -35.418       8.359
  H       81.888     -35.345       7.542
  H       90.906     -33.937       8.942
  P       90.299     -30.081       5.888
  C       88.142     -29.636       4.585
  O       88.929     -29.275       5.705
  O       91.351     -29.772       4.873
  O       90.773     -29.666       7.363
  H       91.258     -28.820       7.322
  H       87.132     -29.237       4.716
  H       88.085     -30.722       4.479
  H       88.579     -29.207       3.678
  H       88.661     -38.260       9.978
  H       87.945     -36.889       9.167
  H       87.490     -37.265      10.811

 3  4  5  6  7  8  9  10  11  12  13  23  27  28  29  30  32 0
 6-311+G(2d,p)
 ****
 34  35 0
 6-311+G(2d,p)
 ****
 1  2  14  15  16  17  18  19  20  21  22  24  25  26 0
 3-21G
 ****
 31  33  36  37  38  39  40  41  42  43  44  45  46 0
 3-21G
 ****


