%nproc=1
%NoSave
%Mem=1900MB
#P OB98/GEN NMR

erre ene a

0 1
  C      815.182    -390.390     -15.058
  O      815.696    -391.697     -14.962
  H      815.492    -389.959     -16.017
  H      815.575    -389.765     -14.255
  H      814.085    -390.401     -15.018
  P      815.196    -392.578     -13.712
  C      815.844    -392.685     -11.201
  O      815.831    -391.921     -12.398
  C      817.138    -392.443     -10.423
  O      817.292    -391.036     -10.151
  C      817.195    -393.159      -9.071
  O      817.598    -394.513      -9.208
  C      818.267    -392.329      -8.372
  O      819.569    -392.706      -8.867
  C      817.920    -390.910      -8.833
  N      817.520    -387.376      -5.212
  C      818.643    -387.835      -5.887
  N      819.829    -387.284      -5.536
  N      818.603    -388.767      -6.814
  C      817.351    -389.224      -7.052
  C      816.166    -388.840      -6.451
  C      816.224    -387.815      -5.433
  O      815.270    -387.354      -4.824
  N      815.098    -389.528      -6.972
  C      815.640    -390.344      -7.850
  N      817.002    -390.209      -7.941
  O      816.010    -393.951     -13.875
  O      813.724    -392.822     -13.659
  H      819.664    -393.654      -8.713
  H      815.439    -394.691     -13.594
  H      817.615    -386.673      -4.499
  H      815.081    -391.045      -8.465
  H      818.798    -390.274      -8.943
  H      818.271    -392.481      -7.297
  H      819.930    -386.617      -4.800
  H      816.249    -393.075      -8.526
  H      820.664    -387.601      -6.039
  H      817.974    -392.748     -11.058
  H      815.764    -393.754     -11.454
  H      814.974    -392.396     -10.599
  P      816.772    -395.622      -8.388
  C      816.297    -395.976      -5.854
  O      817.094    -395.329      -6.841
  O      817.577    -396.967      -8.689
  O      815.331    -395.727      -8.732
  H      816.991    -397.741      -8.548
  H      816.629    -395.684      -4.880
  H      816.390    -397.037      -5.959
  H      815.273    -395.694      -5.981

 6  7  8  9  10  11  12  13  14  15  26  29  33  34 0
 6-311+G(2d,p)
 ****
 36  38  39  40  41 0
 6-311+G(2d,p)
 ****
 1  2  3  4  5  16  17  18  19  20  21  22  23  24  25 0
 3-21G
 ****
 27  28  30  31  32  35  37  42  43  44  45  46  47 0
 3-21G
 ****
 48  49 0
 3-21G
 ****


