%nproc=1
%NoSave
%Mem=1900MB
#P OB98/GEN NMR

erre ene a

0 1
  C     -279.037     252.636    -794.982
  O     -280.336     253.169    -795.106
  H     -278.600     252.538    -795.977
  H     -279.086     251.643    -794.517
  H     -278.393     253.289    -794.384
  P     -281.080     253.717    -793.795
  C     -281.049     256.261    -794.271
  O     -281.829     255.070    -794.214
  C     -281.774     257.347    -795.081
  O     -281.687     257.024    -796.500
  C     -283.266     257.407    -794.723
  O     -283.806     258.713    -794.932
  C     -283.886     256.449    -795.740
  O     -285.271     256.703    -795.975
  C     -283.000     256.690    -796.970
  N     -284.684     254.507    -801.261
  C     -285.165     255.623    -800.596
  N     -286.239     256.234    -801.156
  N     -284.665     256.075    -799.483
  C     -283.642     255.326    -799.002
  C     -283.090     254.187    -799.556
  C     -283.638     253.712    -800.813
  O     -283.261     252.723    -801.424
  N     -282.076     253.687    -798.772
  C     -282.013     254.516    -797.750
  N     -282.930     255.541    -797.851
  O     -279.879     254.261    -792.879
  O     -281.922     252.714    -793.063
  H     -285.577     256.044    -796.622
  H     -280.149     254.291    -791.948
  H     -285.086     254.224    -802.133
  H     -281.325     254.423    -796.915
  H     -283.370     257.536    -797.548
  H     -283.803     255.441    -795.351
  H     -286.765     255.804    -801.896
  H     -283.473     257.084    -793.714
  H     -286.785     256.842    -800.537
  H     -281.268     258.314    -794.943
  H     -280.105     255.992    -794.748
  H     -280.819     256.612    -793.266
  P     -285.165     259.097    -794.178
  C     -284.389     261.152    -792.697
  O     -285.146     260.642    -793.774
  O     -285.053     258.339    -792.770
  O     -286.418     258.722    -794.921
  H     -285.751     257.652    -792.694
  H     -284.539     262.209    -792.625
  H     -283.352     260.949    -792.863
  H     -284.703     260.684    -791.787

 6  7  8  9  10  11  12  13  14  15  26  29  33  34 0
 6-311+G(2d,p)
 ****
 36  38  39  40  41 0
 6-311+G(2d,p)
 ****
 1  2  3  4  5  16  17  18  19  20  21  22  23  24  25 0
 3-21G
 ****
 27  28  30  31  32  35  37  42  43  44  45  46  47 0
 3-21G
 ****
 48  49 0
 3-21G
 ****


