%nproc=1
%NoSave
%Mem=1900MB
#P OB98/GEN NMR

erre ene a

0 1
  C       57.460     144.955    -172.397
  O       57.494     145.346    -171.036
  H       58.482     144.949    -172.787
  H       56.868     145.670    -172.972
  H       57.036     143.952    -172.496
  P       56.127     145.195    -170.216
  C       56.915     143.115    -168.825
  O       56.002     143.653    -169.774
  C       56.151     142.492    -167.659
  O       55.232     141.484    -168.124
  C       57.027     141.747    -166.664
  O       57.797     142.615    -165.861
  C       55.973     140.971    -165.886
  O       55.397     141.762    -164.839
  C       54.922     140.658    -166.979
  N       54.891     139.242    -167.307
  C       54.003     138.470    -166.544
  O       53.306     139.001    -165.681
  N       53.963     137.118    -166.756
  C       54.756     136.576    -167.628
  N       54.690     135.225    -167.766
  C       55.709     137.354    -168.452
  C       55.721     138.670    -168.240
  O       55.020     145.336    -171.363
  O       55.962     146.157    -169.088
  H       56.145     142.191    -164.373
  H       55.188     144.776    -172.139
  H       56.337     136.858    -169.177
  H       56.390     139.318    -168.800
  H       53.917     140.954    -166.642
  H       56.396     140.080    -165.414
  H       57.665     141.024    -167.191
  H       55.575     143.287    -167.164
  H       54.065     134.721    -167.143
  H       57.595     143.892    -168.464
  H       55.311     134.689    -168.355
  H       57.517     142.357    -169.336
  P       59.214     142.163    -165.269
  C       60.329     141.676    -167.542
  O       59.844     141.122    -166.324
  O       59.193     141.673    -163.862
  O       60.131     143.459    -165.494
  H       60.219     143.741    -166.423
  H       60.721     140.894    -168.158
  H       61.103     142.384    -167.329
  H       59.528     142.167    -168.055

 6  7  8  9  10  11  12  13  14  15  16  26  30  31  32  33  35 0
 6-311+G(2d,p)
 ****
 37  38 0
 6-311+G(2d,p)
 ****
 1  2  3  4  5  17  18  19  20  21  22  23  24  25 0
 3-21G
 ****
 27  28  29  34  36  39  40  41  42  43  44  45  46 0
 3-21G
 ****


