%nproc=1
%NoSave
%Mem=1900MB
#P OB98/GEN NMR

erre ene a

0 1
  C       60.442      -0.121     185.073
  O       60.533      -1.121     186.096
  P       60.040      -2.636     185.898
  C       60.613      -4.606     184.318
  O       61.016      -3.343     184.835
  C       61.649      -5.142     183.326
  O       61.681      -4.317     182.137
  C       63.088      -5.134     183.821
  O       63.336      -6.145     184.780
  C       63.855      -5.308     182.512
  O       63.955      -6.690     182.143
  C       62.960      -4.558     181.506
  N       63.552      -3.317     181.034
  C       64.757      -3.423     180.334
  O       65.311      -4.515     180.209
  N       65.310      -2.283     179.805
  C       64.769      -1.130     180.048
  N       65.351      -0.038     179.484
  C       63.575      -0.962     180.897
  C       63.022      -2.087     181.351
  O       58.592      -2.762     185.557
  O       60.375      -3.375     187.277
  H       59.767      -4.127     187.401
  H       63.051      -7.060     182.189
  H       63.180       0.020     181.109
  H       62.133      -2.055     181.971
  H       62.740      -5.200     180.645
  H       64.875      -4.917     182.578
  H       63.317      -4.150     184.249
  H       61.350      -6.159     183.038
  H       66.164      -0.189     178.898
  H       59.658      -4.477     183.796
  H       64.997       0.901     179.591
  H       60.465      -5.305     185.146
  P       63.119      -5.756     186.321
  C       61.391      -6.318     188.174
  O       61.797      -6.503     186.832
  O       62.690      -4.214     186.263
  O       64.323      -5.951     187.183
  H       63.099      -3.732     187.005
  H       60.308      -6.452     188.233
  H       61.646      -5.321     188.541
  H       61.873      -7.071     188.802
  H       60.833       0.804     185.443
  H       59.418       0.011     184.793
  H       61.008      -0.431     184.219

 3  4  5  6  7  8  9  10  11  12  13  24  27  28  29  30  32 0
 6-311+G(2d,p)
 ****
 34  35 0
 6-311+G(2d,p)
 ****
 1  2  14  15  16  17  18  19  20  21  22  23  25  26 0
 3-21G
 ****
 31  33  36  37  38  39  40  41  42  43  44  45  46 0
 3-21G
 ****


