%nproc=1
%NoSave
%Mem=1900MB
#P OB98/GEN NMR

erre ene a

0 1
  C      -58.383      20.061     399.786
  O      -58.231      20.256     401.193
  P      -58.029      21.674     401.896
  C      -56.237      20.732     403.566
  O      -57.458      21.427     403.371
  C      -55.909      20.484     405.056
  O      -56.747      19.415     405.565
  C      -54.465      20.015     405.216
  O      -53.405      20.967     405.262
  C      -54.496      19.073     406.412
  O      -54.172      19.718     407.639
  C      -55.947      18.580     406.433
  N      -56.551      13.724     407.938
  C      -56.385      14.864     408.707
  N      -56.319      14.691     410.036
  N      -56.275      16.068     408.198
  C      -56.269      16.088     406.847
  C      -56.396      15.030     405.975
  C      -56.584      13.705     406.543
  O      -56.748      12.672     405.911
  N      -56.331      15.432     404.671
  C      -56.121      16.741     404.744
  N      -56.081      17.187     406.051
  O      -59.163      22.634     401.758
  O      -56.765      22.301     401.111
  H      -54.212      19.058     408.354
  H      -56.901      23.272     401.080
  H      -56.657      12.823     408.372
  H      -56.000      17.394     403.895
  H      -56.385      18.669     407.437
  H      -53.760      18.265     406.283
  H      -56.275      13.789     410.476
  H      -54.237      19.386     404.349
  H      -55.982      15.483     410.586
  H      -56.148      21.375     405.655
  H      -55.453      21.329     403.102
  H      -56.264      19.772     403.038
  P      -52.085      20.942     404.363
  C      -50.232      21.312     406.098
  O      -50.997      21.897     405.053
  O      -52.493      21.775     403.051
  O      -51.587      19.583     403.990
  H      -51.862      21.608     402.324
  H      -49.766      22.122     406.687
  H      -49.450      20.682     405.676
  H      -50.867      20.711     406.760
  H      -58.502      19.018     399.581
  H      -57.515      20.427     399.279
  H      -59.246      20.592     399.443

 3  4  5  6  7  8  9  10  11  12  23  26  30  31 0
 6-311+G(2d,p)
 ****
 33  35  36  37  38 0
 6-311+G(2d,p)
 ****
 1  2  13  14  15  16  17  18  19  20  21  22  24  25 0
 3-21G
 ****
 27  28  29  32  34  39  40  41  42  43  44  45  46  47  48  49 0
 3-21G
 ****


