%nproc=1
%NoSave
%Mem=1900MB
#P OB98/GEN NMR

erre ene a

0 1
  C      103.983     325.477     163.190
  O      104.255     324.692     164.335
  H      104.349     326.492     163.366
  H      102.904     325.515     163.012
  H      104.491     325.062     162.314
  P      103.955     323.123     164.226
  C      104.527     321.040     165.718
  O      104.798     322.396     165.385
  C      105.579     320.525     166.700
  O      106.898     320.565     166.119
  C      105.711     321.365     167.958
  O      104.611     321.226     168.829
  C      107.017     320.818     168.520
  O      106.807     319.566     169.188
  C      107.841     320.615     167.224
  N      108.843     321.654     167.032
  C      110.150     321.318     167.408
  O      110.399     320.200     167.856
  N      111.132     322.271     167.290
  C      110.845     323.443     166.816
  N      111.860     324.345     166.735
  C      109.488     323.829     166.384
  C      108.544     322.898     166.523
  O      104.746     322.707     162.900
  O      102.509     322.750     164.229
  H      106.201     319.752     169.932
  H      105.681     322.969     162.906
  H      109.292     324.815     165.986
  H      107.522     323.098     166.233
  H      108.356     319.646     167.244
  H      107.465     321.497     169.246
  H      105.875     322.418     167.695
  H      105.340     319.479     166.937
  H      112.774     324.049     167.058
  H      104.496     320.415     164.821
  H      111.749     325.293     166.412
  H      103.535     321.005     166.179
  P      104.546     322.052     170.202
  C      102.659     323.110     171.599
  O      103.043     322.606     170.322
  O      105.604     323.087     170.371
  O      104.575     320.907     171.322
  H      103.836     320.272     171.271
  H      101.645     323.449     171.559
  H      103.297     323.926     171.867
  H      102.747     322.334     172.330

 6  7  8  9  10  11  12  13  14  15  16  26  30  31  32  33  35 0
 6-311+G(2d,p)
 ****
 37  38 0
 6-311+G(2d,p)
 ****
 1  2  3  4  5  17  18  19  20  21  22  23  24  25 0
 3-21G
 ****
 27  28  29  34  36  39  40  41  42  43  44  45  46 0
 3-21G
 ****


