%nproc=1
%NoSave
%Mem=1900MB
#P OB98/GEN NMR

erre ene a

0 1
  C     -182.288     148.313    -372.646
  O     -182.217     148.038    -374.033
  H     -181.416     148.907    -372.359
  H     -182.281     147.387    -372.063
  H     -183.192     148.884    -372.419
  P     -183.305     147.047    -374.666
  C     -182.116     144.997    -373.627
  O     -182.565     145.636    -374.818
  C     -181.676     143.569    -373.934
  O     -182.821     142.746    -374.231
  C     -180.767     143.470    -375.151
  O     -179.459     143.904    -374.840
  C     -180.906     142.001    -375.494
  O     -180.082     141.187    -374.648
  C     -182.406     141.758    -375.202
  N     -183.231     141.822    -376.403
  C     -183.041     140.796    -377.335
  O     -182.222     139.903    -377.121
  N     -183.772     140.824    -378.496
  C     -184.626     141.776    -378.701
  N     -185.317     141.746    -379.873
  C     -184.866     142.869    -377.740
  C     -184.139     142.833    -376.626
  O     -184.006     147.516    -375.904
  O     -184.328     146.792    -373.459
  H     -179.164     141.487    -374.802
  H     -185.040     147.458    -373.469
  H     -185.592     143.641    -377.951
  H     -184.255     143.596    -375.864
  H     -182.552     140.774    -374.736
  H     -180.621     141.800    -376.525
  H     -181.182     144.053    -375.979
  H     -181.188     143.160    -373.041
  H     -185.112     140.983    -380.508
  H     -182.958     144.991    -372.928
  H     -186.066     142.382    -380.102
  H     -181.293     145.559    -373.174
  P     -178.767     145.080    -375.681
  C     -179.097     143.707    -377.840
  O     -178.164     144.368    -376.990
  O     -177.811     145.934    -374.919
  O     -180.018     145.893    -376.265
  H     -180.454     146.435    -375.563
  H     -178.579     143.275    -378.671
  H     -179.817     144.413    -378.197
  H     -179.596     142.936    -377.291

 6  7  8  9  10  11  12  13  14  15  16  26  30  31  32  33  35 0
 6-311+G(2d,p)
 ****
 37  38 0
 6-311+G(2d,p)
 ****
 1  2  3  4  5  17  18  19  20  21  22  23  24  25 0
 3-21G
 ****
 27  28  29  34  36  39  40  41  42  43  44  45  46 0
 3-21G
 ****


