%nproc=1
%NoSave
%Mem=1900MB
#P OB98/GEN NMR

erre ene a

0 1
  C     -936.847    -886.628     -40.485
  O     -936.234    -887.332     -41.549
  H     -937.735    -887.186     -40.158
  H     -937.159    -885.638     -40.824
  H     -936.161    -886.539     -39.630
  P     -934.793    -886.824     -42.029
  C     -935.950    -885.010     -43.493
  O     -935.009    -886.078     -43.422
  C     -935.768    -884.241     -44.808
  O     -934.416    -883.705     -44.831
  C     -935.962    -885.096     -46.063
  O     -936.574    -884.278     -47.062
  C     -934.531    -885.395     -46.497
  O     -934.392    -885.705     -47.868
  C     -933.830    -884.081     -46.089
  N     -932.373    -884.241     -45.975
  C     -931.598    -883.926     -47.087
  O     -932.043    -883.438     -48.127
  N     -930.260    -884.182     -46.971
  C     -929.640    -884.734     -45.888
  O     -928.440    -884.960     -45.854
  C     -930.518    -885.066     -44.747
  C     -931.819    -884.806     -44.849
  O     -934.050    -888.191     -42.437
  O     -934.025    -886.034     -41.016
  H     -933.580    -888.575     -41.668
  H     -933.458    -885.879     -48.055
  H     -929.698    -883.961     -47.774
  H     -930.049    -885.517     -43.881
  H     -932.487    -885.059     -44.022
  H     -934.062    -883.299     -46.817
  H     -934.135    -886.242     -45.908
  H     -936.544    -885.991     -45.901
  H     -936.458    -883.378     -44.793
  H     -935.769    -884.332     -42.645
  H     -936.956    -885.421     -43.426
  P     -938.187    -884.328     -47.160
  C     -938.121    -886.411     -48.765
  O     -938.518    -885.051     -48.556
  O     -938.517    -882.796     -47.426
  O     -938.821    -884.930     -45.963
  H     -937.864    -882.334     -47.964
  H     -938.422    -886.724     -49.743
  H     -938.587    -887.035     -48.032
  H     -937.058    -886.490     -48.677

 6  7  8  9  10  11  12  13  14  15  16  27  31  32  33  34  35 0
 6-311+G(2d,p)
 ****
 36  37 0
 6-311+G(2d,p)
 ****
 1  2  3  4  5  17  18  19  20  21  22  23  24  25 0
 3-21G
 ****
 26  28  29  30  38  39  40  41  42  43  44  45 0
 3-21G
 ****


