%nproc=1
%NoSave
%Mem=1900MB
#P OB98/GEN NMR

erre ene a

0 1
  C      -66.418      34.465     486.294
  O      -67.483      33.793     486.923
  H      -66.509      35.548     486.432
  H      -65.474      34.133     486.739
  H      -66.404      34.230     485.224
  P      -68.965      34.227     486.478
  C      -70.087      31.985     487.134
  O      -69.981      33.382     487.387
  C      -70.670      31.274     488.352
  O      -69.737      31.311     489.452
  C      -71.954      31.889     488.895
  O      -73.093      31.516     488.123
  C      -71.997      31.274     490.289
  O      -72.518      29.935     490.212
  C      -70.511      31.242     490.678
  N      -70.411      32.982     495.514
  C      -70.891      31.831     494.982
  N      -70.896      31.443     493.687
  C      -70.306      32.367     492.910
  C      -69.765      33.578     493.310
  C      -69.840      33.888     494.681
  N      -69.356      35.060     495.216
  N      -69.242      34.266     492.237
  C      -69.458      33.481     491.200
  N      -70.103      32.325     491.556
  O      -69.125      33.571     485.026
  O      -69.217      35.700     486.440
  H      -73.460      30.013     489.956
  H      -69.658      34.164     484.462
  H      -71.338      31.137     495.679
  H      -69.153      33.706     490.179
  H      -70.245      30.290     491.166
  H      -72.627      31.833     490.988
  H      -71.872      32.979     488.981
  H      -70.827      30.218     488.085
  H      -69.089      31.578     486.927
  H      -69.259      35.130     496.214
  H      -68.925      35.728     494.586
  H      -70.725      31.825     486.260
  P      -74.091      32.690     487.667
  C      -74.343      32.014     485.170
  O      -74.948      32.069     486.457
  O      -73.122      33.735     486.936
  O      -74.865      33.327     488.768
  H      -73.510      34.629     486.969
  H      -75.028      31.580     484.472
  H      -73.456      31.417     485.218
  H      -74.090      33.004     484.852

 6  7  8  9  10  11  12  13  14  15  25  28  32  33  34  35 0
 6-311+G(2d,p)
 ****
 36  39  40 0
 6-311+G(2d,p)
 ****
 1  2  3  4  5  16  17  18  19  20  21  22  23  24 0
 3-21G
 ****
 26  27  29  30  31  37  38  41  42  43  44  45  46  47  48 0
 3-21G
 ****


