%nproc=1
%NoSave
%Mem=1900MB
#P OB98/GEN NMR

erre ene a

0 1
  C      804.079    -419.770     541.592
  O      802.992    -419.721     542.486
  H      803.897    -419.055     540.783
  H      804.165    -420.770     541.164
  H      805.016    -419.504     542.087
  P      803.143    -420.421     543.920
  C      804.211    -418.184     544.653
  O      804.257    -419.600     544.731
  C      804.942    -417.543     545.837
  O      804.248    -417.897     547.067
  C      806.376    -418.070     545.973
  O      807.241    -417.121     546.584
  C      806.210    -419.265     546.896
  O      807.412    -419.619     547.580
  C      805.103    -418.767     547.819
  N      804.297    -421.775     551.869
  C      805.349    -420.929     551.611
  N      806.317    -420.860     552.563
  N      805.453    -420.220     550.518
  C      804.460    -420.433     549.630
  C      803.372    -421.273     549.755
  C      803.241    -422.028     550.989
  O      802.349    -422.813     551.257
  N      802.580    -421.244     548.639
  C      803.176    -420.387     547.833
  N      804.312    -419.851     548.402
  O      803.893    -421.798     543.593
  O      801.862    -420.656     544.666
  H      807.987    -420.092     546.946
  H      803.735    -422.448     544.300
  H      804.243    -422.273     552.744
  H      802.828    -420.106     546.845
  H      805.518    -418.194     548.663
  H      805.909    -420.129     546.298
  H      806.361    -421.524     553.318
  H      806.801    -418.386     545.016
  H      807.223    -420.489     552.259
  H      804.903    -416.453     545.759
  H      803.153    -417.902     544.646
  H      804.637    -417.840     543.704
  P      808.392    -416.441     545.690
  C      807.869    -413.851     545.565
  O      807.820    -415.135     544.975
  O      808.590    -417.474     544.481
  O      809.669    -416.177     546.422
  H      809.488    -417.862     544.506
  H      807.428    -413.137     544.902
  H      808.888    -413.583     545.751
  H      807.329    -413.862     546.488

 6  7  8  9  10  11  12  13  14  15  26  29  33  34 0
 6-311+G(2d,p)
 ****
 36  38  39  40  41 0
 6-311+G(2d,p)
 ****
 1  2  3  4  5  16  17  18  19  20  21  22  23  24  25 0
 3-21G
 ****
 27  28  30  31  32  35  37  42  43  44  45  46  47 0
 3-21G
 ****
 48  49 0
 3-21G
 ****


