%nproc=1
%NoSave
%Mem=1900MB
#P OB98/GEN NMR

erre ene a

0 1
  C     -897.770    -890.890     353.540
  O     -897.740    -891.970     352.581
  P     -896.300    -892.610     352.344
  C     -897.050    -894.890     353.330
  O     -896.080    -893.860     353.362
  C     -896.490    -896.200     353.937
  O     -895.410    -896.680     353.154
  C     -896.020    -896.030     355.393
  O     -896.270    -897.280     356.083
  C     -894.500    -895.880     355.239
  O     -893.830    -896.180     356.428
  C     -894.270    -896.860     354.046
  N     -893.020    -896.590     353.385
  C     -892.020    -897.600     353.391
  O     -892.210    -898.610     354.017
  N     -890.850    -897.390     352.704
  C     -890.650    -896.260     352.103
  N     -889.450    -896.130     351.439
  C     -891.610    -895.160     352.108
  C     -892.780    -895.400     352.742
  O     -895.260    -891.520     352.841
  O     -896.090    -892.960     350.865
  H     -894.090    -895.510     357.135
  H     -894.600    -891.370     352.183
  H     -891.380    -894.240     351.599
  H     -893.560    -894.650     352.799
  H     -894.220    -897.920     354.407
  H     -894.260    -894.830     354.927
  H     -896.480    -895.200     355.944
  H     -897.260    -896.950     353.908
  H     -888.830    -896.920     351.444
  H     -897.360    -895.100     352.292
  H     -889.180    -895.290     350.943
  H     -897.940    -894.560     353.889
  P     -897.650    -897.370     356.907
  C     -899.220    -899.210     356.006
  O     -898.700    -897.940     355.808
  O     -898.050    -895.870     357.061
  O     -897.620    -898.110     358.202
  H     -898.860    -895.820     357.594
  H     -900.000    -899.390     355.241
  H     -899.650    -899.300     356.986
  H     -898.450    -900.000     355.865
  H     -898.771    -890.524     353.634
  H     -897.131    -890.099     353.207
  H     -897.430    -891.247     354.490

 3  4  5  6  7  8  9  10  11  12  13  21  23  27  28  29  30  32 0
 6-311+G(2d,p)
 ****
 34  35 0
 6-311+G(2d,p)
 ****
 1  2  14  15  16  17  18  19  20  22  24  25  26 0
 3-21G
 ****
 31  33  36  37  38  39  40  41  42  43  44  45  46 0
 3-21G
 ****


