%nproc=1
%NoSave
%Mem=1900MB
#P OB98/GEN NMR

erre ene a

0 1
  C       22.508    -422.167      48.367
  O       21.130    -421.856      48.336
  H       22.717    -422.903      47.588
  H       22.777    -422.592      49.338
  H       23.104    -421.272      48.175
  P       20.602    -420.762      49.393
  C       19.651    -422.512      51.065
  O       20.628    -421.511      50.815
  C       18.966    -422.266      52.417
  O       17.822    -423.141      52.537
  C       19.888    -422.533      53.615
  O       19.707    -421.495      54.582
  C       19.414    -423.867      54.161
  O       19.699    -424.014      55.552
  C       17.925    -423.854      53.787
  N       17.376    -425.203      53.673
  C       16.701    -425.708      54.793
  O       16.597    -425.023      55.817
  N       16.205    -426.985      54.749
  C       16.419    -427.722      53.707
  N       15.922    -428.990      53.733
  C       17.171    -427.254      52.526
  C       17.612    -425.996      52.576
  O       19.045    -420.657      49.049
  O       21.320    -419.454      49.365
  H       19.324    -424.875      55.846
  H       18.634    -419.866      49.474
  H       17.340    -427.911      51.688
  H       18.177    -425.569      51.753
  H       17.342    -423.305      54.542
  H       19.921    -424.679      53.626
  H       20.941    -422.580      53.343
  H       18.583    -421.235      52.432
  H       15.424    -429.283      54.568
  H       20.138    -423.494      51.072
  H       16.059    -429.662      52.988
  H       18.898    -422.483      50.267
  P       20.752    -420.274      54.509
  C       22.329    -421.201      56.353
  O       22.182    -420.832      54.983
  O       20.291    -419.312      55.708
  O       20.762    -419.577      53.190
  H       19.754    -418.574      55.363
  H       23.325    -421.552      56.523
  H       21.632    -421.978      56.590
  H       22.140    -420.350      56.974

 6  7  8  9  10  11  12  13  14  15  16  26  30  31  32  33  35 0
 6-311+G(2d,p)
 ****
 37  38 0
 6-311+G(2d,p)
 ****
 1  2  3  4  5  17  18  19  20  21  22  23  24  25 0
 3-21G
 ****
 27  28  29  34  36  39  40  41  42  43  44  45  46 0
 3-21G
 ****


