%nproc=1
%NoSave
%Mem=1900MB
#P OB98/GEN NMR

erre ene a

0 1
  C       46.320      53.106     304.585
  O       45.226      52.388     305.136
  P       43.847      53.182     305.368
  C       44.576      53.818     307.771
  O       44.146      54.286     306.496
  C       43.715      54.409     308.885
  O       43.760      55.863     308.793
  C       42.234      53.988     308.831
  O       41.784      53.671     310.159
  C       41.518      55.253     308.391
  O       40.160      55.280     308.821
  C       42.410      56.317     309.034
  N       41.589      61.119     310.380
  C       41.989      60.047     311.147
  N       42.140      60.276     312.472
  N       42.224      58.851     310.669
  C       42.066      58.779     309.319
  C       41.679      59.772     308.448
  C       41.362      61.073     309.005
  O       40.919      62.036     308.391
  N       41.646      59.315     307.152
  C       42.006      58.049     307.240
  N       42.227      57.663     308.539
  O       42.939      52.102     306.121
  O       43.180      53.682     304.132
  H       39.738      54.465     308.482
  H       42.105      51.970     305.627
  H       41.402      62.012     310.799
  H       42.092      57.368     306.398
  H       42.250      56.337     310.125
  H       41.542      55.321     307.296
  H       42.013      61.178     312.902
  H       42.030      53.147     308.161
  H       42.461      59.506     313.046
  H       44.160      54.139     309.850
  H       45.618      54.112     307.925
  H       44.510      52.724     307.784
  P       40.501      52.712     310.258
  C       39.016      54.844     310.482
  O       39.247      53.613     309.822
  O       40.305      52.516     311.837
  O       40.658      51.412     309.536
  H       39.828      51.685     312.022
  H       39.847      55.126     311.134
  H       38.109      54.762     311.082
  H       38.877      55.628     309.732
  H       47.163      52.454     304.489
  H       46.572      53.922     305.230
  H       46.050      53.484     303.621

 3  4  5  6  7  8  9  10  11  12  23  26  30  31  33  0
 6-311+G(2d,p)
 ****
 35  36  37  38 0
 6-311+G(2d,p)
 ****
 1  2  13  14  15  16  17  18  19  20  21  22  24  25  27  28  29 0
 3-21G
 ****
 32  34  39  40  41  42  43  44  45  46  47  48  49 0
 3-21G
 ****


