%nproc=1
%NoSave
%Mem=1900MB
#P OB98/GEN NMR

erre ene a

0 1
  C      -52.370     -66.627      52.698
  O      -52.391     -66.343      54.103
  P      -51.704     -67.315      55.180
  C      -53.633     -69.021      55.225
  O      -52.252     -68.806      54.951
  C      -53.913     -70.474      55.621
  O      -53.589     -71.370      54.541
  C      -53.119     -70.965      56.828
  O      -53.697     -70.494      58.030
  C      -53.183     -72.477      56.631
  O      -54.437     -72.993      57.109
  C      -53.100     -72.602      55.105
  N      -49.814     -76.292      53.790
  C      -51.102     -76.332      54.192
  N      -51.910     -75.304      54.530
  C      -51.266     -74.133      54.395
  C      -49.952     -73.936      53.999
  C      -49.208     -75.086      53.688
  N      -47.891     -75.045      53.294
  N      -49.635     -72.594      54.005
  C      -50.745     -71.990      54.379
  N      -51.757     -72.876      54.627
  O      -51.805     -66.836      56.591
  O      -50.172     -67.409      54.723
  H      -54.422     -72.941      58.081
  H      -49.608     -67.584      55.498
  H      -51.545     -77.323      54.253
  H      -50.865     -70.919      54.483
  H      -53.750     -73.399      54.728
  H      -52.387     -73.006      57.163
  H      -52.078     -70.633      56.752
  H      -54.990     -70.568      55.809
  H      -54.207     -68.770      54.325
  H      -47.417     -75.917      53.121
  H      -47.417     -74.153      53.260
  H      -53.937     -68.349      56.036
  P      -53.032     -69.265      58.814
  C      -50.917     -70.018      60.055
  O      -51.450     -69.523      58.841
  O      -53.644     -68.934      60.133
  O      -53.170     -68.043      57.787
  H      -53.241     -67.209      58.287
  H      -50.795     -69.192      60.762
  H      -49.939     -70.461      59.854
  H      -51.570     -70.779      60.489
  H      -52.884     -65.851      52.170
  H      -52.854     -67.564      52.516
  H      -51.356     -66.678      52.360

 3  4  5  6  7  8  9  10  11  12  22  25  29  30  31  32 0
 6-311+G(2d,p)
 ****
 33  36  37 0
 6-311+G(2d,p)
 ****
 1  2  13  14  15  16  17  18  19  20  21  23  24  26 0
 3-21G
 ****
 27  28  34  35  38  39  40  41  42  43  44  45  46  47  48 0
 3-21G
 ****


