%nproc=1
%NoSave
%Mem=1900MB
#P OB98/GEN NMR

erre ene a

0 1
  C     -301.634    -840.664     528.777
  O     -302.782    -841.429     528.394
  P     -303.080    -841.528     526.821
  C     -305.505    -841.284     525.935
  O     -304.572    -842.084     526.629
  C     -306.811    -842.047     525.702
  O     -306.583    -843.345     525.083
  C     -307.598    -842.317     526.962
  O     -308.320    -841.160     527.351
  C     -308.508    -843.472     526.536
  O     -309.682    -842.985     525.859
  C     -307.620    -844.245     525.562
  N     -308.401    -848.887     527.498
  C     -309.319    -847.899     527.164
  N     -310.609    -848.182     527.345
  N     -308.975    -846.736     526.688
  C     -307.629    -846.564     526.555
  C     -306.630    -847.468     526.828
  C     -307.026    -848.769     527.361
  O     -306.267    -849.690     527.657
  N     -305.397    -846.972     526.519
  C     -305.640    -845.723     526.175
  N     -306.985    -845.437     526.119
  O     -302.139    -842.737     526.356
  O     -302.763    -840.272     526.082
  H     -310.234    -842.506     526.497
  H     -301.405    -842.397     525.802
  H     -308.725    -849.763     527.879
  H     -304.880    -844.992     525.926
  H     -308.179    -844.586     524.687
  H     -308.848    -844.047     527.397
  H     -310.963    -849.080     527.706
  H     -306.920    -842.641     527.769
  H     -311.301    -847.478     527.091
  H     -307.421    -841.456     524.986
  H     -305.087    -840.964     524.962
  H     -305.693    -840.369     526.512
  P     -307.688    -840.220     528.493
  C     -309.768    -839.211     529.681
  O     -308.722    -839.015     528.746
  O     -306.448    -839.523     527.771
  O     -307.246    -840.965     529.717
  H     -305.666    -839.544     528.343
  H     -310.029    -838.256     530.116
  H     -309.491    -839.904     530.477
  H     -310.665    -839.606     529.159
  H     -301.540    -840.671     529.843
  H     -301.747    -839.656     528.436
  H     -300.757    -841.093     528.339

 3  4  5  6  7  8  9  10  11  12  23  26  30  31 0
 6-311+G(2d,p)
 ****
 33  35  36  37  38 0
 6-311+G(2d,p)
 ****
 1  2  13  14  15  16  17  18  19  20  21  22  24  25 0
 3-21G
 ****
 27  28  29  32  34  39  40  41  42  43  44  45  46  47  48  49 0
 3-21G
 ****


