%nproc=1
%NoSave
%Mem=1900MB
#P OB98/GEN NMR

erre ene a

0 1
  C      -89.224    -556.590     414.501
  O      -88.507    -556.156     413.333
  P      -87.977    -554.616     413.370
  C      -89.758    -554.118     411.558
  O      -88.428    -553.930     411.992
  C      -90.093    -553.174     410.391
  O      -90.029    -551.781     410.824
  C      -89.162    -553.328     409.186
  O      -89.948    -553.112     408.010
  C      -88.179    -552.176     409.399
  O      -87.417    -551.869     408.243
  C      -89.140    -551.100     409.885
  N      -87.583    -546.292     409.228
  C      -88.216    -547.152     408.411
  N      -88.587    -548.431     408.661
  C      -88.267    -548.779     409.908
  C      -87.627    -547.998     410.869
  C      -87.282    -546.689     410.501
  N      -86.625    -545.802     411.314
  N      -87.449    -548.723     412.041
  C      -87.923    -549.934     411.776
  N      -88.472    -549.983     410.526
  O      -86.392    -554.769     413.252
  O      -88.388    -553.892     414.608
  H      -86.692    -551.265     408.492
  H      -85.966    -554.688     414.125
  H      -88.419    -546.784     407.401
  H      -87.855    -550.796     412.423
  H      -89.754    -550.709     409.084
  H      -87.470    -552.474     410.192
  H      -88.681    -554.309     409.126
  H      -91.141    -553.369     410.085
  H      -90.462    -553.923     412.391
  H      -86.416    -544.884     410.952
  H      -86.380    -546.073     412.265
  H      -89.915    -555.161     411.283
  P      -90.408    -554.392     407.146
  C      -88.703    -554.241     405.221
  O      -90.056    -553.981     405.624
  O      -92.017    -554.163     407.127
  O      -89.976    -555.716     407.634
  H      -92.240    -553.252     406.873
  H      -88.608    -554.006     404.164
  H      -88.454    -555.289     405.391
  H      -88.021    -553.583     405.790
  H      -89.526    -557.609     414.376
  H      -90.089    -555.975     414.637
  H      -88.590    -556.509     415.359

 3  4  5  6  7  8  9  10  11  12  22  25  29  30  31  32 0
 6-311+G(2d,p)
 ****
 33  36  37 0
 6-311+G(2d,p)
 ****
 1  2  13  14  15  16  17  18  19  20  21  23  24  26 0
 3-21G
 ****
 27  28  34  35  38  39  40  41  42  43  44  45  46  47  48 0
 3-21G
 ****


