%nproc=1
%NoSave
%Mem=1900MB
#P OB98/GEN NMR

erre ene a

0 1
  C      -43.173      -3.654      57.591
  O      -41.867      -4.131      57.844
  H      -43.287      -3.493      56.516
  H      -43.337      -2.705      58.109
  H      -43.913      -4.388      57.920
  P      -41.469      -4.331      59.388
  C      -40.266      -2.019      59.250
  O      -41.227      -2.830      59.909
  C      -40.218      -0.643      59.905
  O      -41.480       0.040      59.746
  C      -39.959      -0.677      61.407
  O      -38.594      -0.884      61.728
  C      -40.426       0.714      61.795
  O      -39.432       1.682      61.411
  C      -41.700       0.854      60.930
  N      -42.916       0.432      61.626
  C      -43.295       1.186      62.743
  O      -42.618       2.146      63.109
  N      -44.419       0.815      63.443
  C      -45.110      -0.212      63.057
  N      -46.205      -0.542      63.794
  C      -44.757      -1.024      61.878
  C      -43.663      -0.651      61.219
  O      -39.982      -4.919      59.321
  O      -42.415      -5.139      60.210
  H      -39.822       2.563      61.560
  H      -39.597      -4.961      60.230
  H      -45.359      -1.877      61.601
  H      -43.340      -1.203      60.342
  H      -41.832       1.889      60.593
  H      -40.589       0.828      62.868
  H      -40.596      -1.412      61.910
  H      -39.457      -0.046      59.383
  H      -46.386      -0.006      64.632
  H      -40.553      -1.928      58.198
  H      -46.694      -1.422      63.680
  H      -39.277      -2.484      59.311
  P      -38.260      -1.650      63.099
  C      -38.565       0.656      64.252
  O      -38.822      -0.740      64.295
  O      -36.675      -1.486      63.227
  O      -38.680      -3.087      63.138
  H      -36.262      -2.297      63.581
  H      -38.999       1.125      65.110
  H      -38.994       1.070      63.364
  H      -37.508       0.824      64.249

 6  7  8  9  10  11  12  13  14  15  16  26  30  31  32  33  35 0
 6-311+G(2d,p)
 ****
 37  38 0
 6-311+G(2d,p)
 ****
 1  2  3  4  5  17  18  19  20  21  22  23  24  25 0
 3-21G
 ****
 27  28  29  34  36  39  40  41  42  43  44  45  46 0
 3-21G
 ****


