%nproc=1
%NoSave
%Mem=1900MB
#P OB98/GEN NMR

erre ene a

0 1
  C     -247.431    -576.405    -259.024
  O     -246.517    -576.542    -257.946
  P     -245.383    -575.418    -257.768
  C     -243.341    -576.914    -258.373
  O     -244.152    -575.805    -258.730
  C     -241.913    -576.463    -258.060
  O     -241.150    -577.590    -257.540
  C     -241.160    -575.935    -259.288
  O     -240.258    -574.889    -258.873
  C     -240.305    -577.117    -259.714
  O     -239.170    -576.698    -260.470
  C     -239.970    -577.735    -258.362
  N     -236.327    -580.939    -259.790
  C     -236.268    -579.579    -259.576
  N     -235.085    -578.985    -259.862
  N     -237.253    -578.872    -259.111
  C     -238.378    -579.605    -258.870
  C     -238.555    -580.960    -259.035
  C     -237.451    -581.733    -259.564
  O     -237.453    -582.935    -259.802
  N     -239.818    -581.349    -258.659
  C     -240.419    -580.222    -258.310
  N     -239.594    -579.131    -258.455
  O     -244.820    -575.720    -256.301
  O     -245.874    -574.015    -257.884
  H     -238.654    -576.097    -259.896
  H     -245.143    -575.043    -255.677
  H     -235.536    -581.445    -260.160
  H     -241.443    -580.143    -257.964
  H     -239.153    -577.199    -257.858
  H     -240.901    -577.795    -260.338
  H     -234.298    -579.459    -260.289
  H     -241.802    -575.563    -260.093
  H     -235.020    -577.970    -259.756
  H     -241.942    -575.704    -257.270
  H     -243.324    -577.624    -259.192
  H     -243.781    -577.412    -257.492
  P     -240.154    -573.620    -259.863
  C     -238.337    -574.722    -261.370
  O     -239.644    -574.196    -261.263
  O     -238.885    -572.820    -259.297
  O     -241.389    -572.775    -259.909
  H     -238.953    -571.873    -259.527
  H     -238.408    -575.790    -261.617
  H     -237.769    -574.604    -260.447
  H     -237.811    -574.205    -262.177
  H     -248.121    -577.223    -259.013
  H     -246.894    -576.405    -259.949
  H     -247.967    -575.484    -258.922

 3  4  5  6  7  8  9  10  11  12  23  26  30  31 0
 6-311+G(2d,p)
 ****
 33  35  36  37  38 0
 6-311+G(2d,p)
 ****
 1  2  13  14  15  16  17  18  19  20  21  22  24  25 0
 3-21G
 ****
 27  28  29  32  34  39  40  41  42  43  44  45  46  47  48  49 0
 3-21G
 ****


