%nproc=1
%NoSave
%Mem=1900MB
#P OB98/GEN NMR

erre ene a

0 1
  C     -185.797     464.570     -80.970
  O     -185.109     465.455     -80.094
  P     -183.518     465.314     -79.978
  C     -183.676     467.405     -78.463
  O     -183.103     466.130     -78.662
  C     -183.631     467.809     -76.993
  O     -182.263     467.860     -76.533
  C     -184.228     469.166     -76.678
  O     -185.633     469.132     -76.560
  C     -183.593     469.456     -75.316
  O     -184.296     468.740     -74.293
  C     -182.188     468.877     -75.504
  N     -180.624     473.694     -74.761
  C     -181.695     473.020     -74.298
  N     -182.053     471.743     -74.552
  C     -181.184     471.161     -75.406
  C     -180.063     471.747     -75.978
  C     -179.778     473.063     -75.619
  N     -178.667     473.743     -76.069
  N     -179.429     470.831     -76.791
  C     -180.135     469.729     -76.709
  N     -181.205     469.877     -75.869
  O     -182.986     466.235     -81.175
  O     -183.002     463.912     -80.081
  H     -185.251     468.902     -74.436
  H     -182.085     465.954     -81.442
  H     -182.355     473.572     -73.643
  H     -179.901     468.804     -77.228
  H     -181.824     468.377     -74.584
  H     -183.622     470.512     -75.047
  H     -183.889     469.928     -77.405
  H     -184.154     467.015     -76.411
  H     -184.717     467.401     -78.810
  H     -178.438     474.624     -75.626
  H     -177.941     473.219     -76.546
  H     -183.123     468.147     -79.074
  P     -186.446     470.364     -77.217
  C     -188.297     468.632     -77.847
  O     -187.974     469.877     -77.255
  O     -185.991     470.312     -78.751
  O     -186.181     471.676     -76.583
  H     -186.083     471.195     -79.163
  H     -189.282     468.320     -77.515
  H     -187.577     467.866     -77.561
  H     -188.306     468.742     -78.949
  H     -186.845     464.783     -80.941
  H     -185.630     463.560     -80.660
  H     -185.433     464.702     -81.968

 3  4  5  6  7  8  9  10  11  12  22  25  29  30  31  32 0
 6-311+G(2d,p)
 ****
 33  36  37 0
 6-311+G(2d,p)
 ****
 1  2  13  14  15  16  17  18  19  20  21  23  24  26 0
 3-21G
 ****
 27  28  34  35  38  39  40  41  42  43  44  45  46  47  48 0
 3-21G
 ****


