%nproc=1
%NoSave
%Mem=1900MB
#P OB98/GEN NMR

erre ene a

0 1
  C      243.902     325.286    -216.861
  O      244.556     325.921    -215.764
  P      244.543     325.205    -214.331
  C      246.981     324.373    -214.281
  O      246.025     325.267    -213.722
  C      248.394     324.950    -214.167
  O      248.636     325.970    -215.158
  C      248.666     325.613    -212.828
  O      248.850     324.642    -211.809
  C      249.895     326.454    -213.151
  O      251.089     325.659    -213.095
  C      249.611     326.881    -214.609
  N      249.183     328.266    -214.735
  C      250.187     329.232    -214.677
  O      251.361     328.899    -214.490
  N      249.846     330.554    -214.813
  C      248.598     330.880    -214.985
  N      248.315     332.202    -215.116
  C      247.503     329.889    -215.037
  C      247.864     328.615    -214.899
  O      243.895     323.859    -214.289
  O      243.749     326.254    -213.416
  H      251.145     325.313    -212.184
  H      243.276     325.768    -212.715
  H      246.485     330.212    -215.187
  H      247.121     327.825    -214.921
  H      250.521     326.762    -215.221
  H      250.023     327.279    -212.447
  H      247.826     326.268    -212.565
  H      249.110     324.131    -214.331
  H      249.080     332.861    -215.066
  H      246.738     324.186    -215.329
  H      247.383     332.551    -215.302
  H      246.906     323.407    -213.765
  P      248.971     325.168    -210.300
  C      247.052     323.625    -209.493
  O      248.398     324.020    -209.338
  O      247.849     326.308    -210.218
  O      250.313     325.703    -209.926
  H      248.142     327.021    -209.620
  H      246.918     322.652    -209.005
  H      246.783     323.519    -210.546
  H      246.393     324.351    -209.011
  H      244.005     325.892    -217.737
  H      242.864     325.161    -216.633
  H      244.347     324.329    -217.036

 3  4  5  6  7  8  9  10  11  12  13  23  27  28  29  30  32 0
 6-311+G(2d,p)
 ****
 34  35 0
 6-311+G(2d,p)
 ****
 1  2  14  15  16  17  18  19  20  21  22  24  25  26 0
 3-21G
 ****
 31  33  36  37  38  39  40  41  42  43  44  45  46 0
 3-21G
 ****


