%nproc=1
%NoSave
%Mem=1900MB
#P OB98/GEN NMR

erre ene a

0 1
  C       26.950     -81.869     426.370
  O       25.598     -81.558     426.023
  P       24.460     -81.998     427.067
  C       24.594     -79.834     428.497
  O       23.787     -80.673     427.682
  C       24.030     -78.411     428.586
  O       23.763     -77.874     427.265
  C       22.739     -78.317     429.391
  O       22.733     -77.046     430.057
  C       21.661     -78.302     428.312
  O       20.443     -77.745     428.805
  C       22.371     -77.476     427.221
  N       21.788     -77.663     425.892
  C       21.635     -76.525     425.100
  O       21.917     -75.410     425.551
  N       21.120     -76.668     423.830
  C       20.748     -77.832     423.415
  N       20.246     -77.913     422.146
  C       20.837     -79.054     424.239
  C       21.364     -78.897     425.452
  O       25.304     -82.599     428.294
  O       23.496     -83.001     426.521
  H       19.770     -77.821     428.093
  H       24.943     -83.470     428.542
  H       20.494     -80.003     423.858
  H       21.476     -79.735     426.132
  H       22.329     -76.406     427.457
  H       21.463     -79.320     427.963
  H       22.612     -79.117     430.125
  H       24.799     -77.767     429.041
  H       20.204     -77.053     421.607
  H       25.613     -79.794     428.102
  H       19.926     -78.766     421.724
  H       24.678     -80.286     429.498
  P       22.493     -77.015     431.640
  C       24.963     -77.639     431.989
  O       23.938     -76.696     432.267
  O       22.337     -78.581     431.969
  O       21.337     -76.224     432.169
  H       22.112     -78.691     432.910
  H       25.913     -77.242     432.365
  H       25.051     -77.803     430.907
  H       24.754     -78.578     432.495
  H       27.605     -81.525     425.597
  H       27.055     -82.928     426.482
  H       27.202     -81.387     427.291

 3  4  5  6  7  8  9  10  11  12  13  21  23  27  28  29  30  32 0
 6-311+G(2d,p)
 ****
 34  35 0
 6-311+G(2d,p)
 ****
 1  2  14  15  16  17  18  19  20  22  24  25  26 0
 3-21G
 ****
 31  33  36  37  38  39  40  41  42  43  44  45  46 0
 3-21G
 ****


