%nproc=1
%NoSave
%Mem=1900MB
#P OB98/GEN NMR

erre ene a

0 1
  C      147.296    -365.451     422.016
  O      147.607    -365.403     423.396
  P      146.450    -365.147     424.477
  C      145.756    -363.141     425.996
  O      146.660    -363.655     425.036
  C      145.956    -361.633     426.191
  O      147.243    -361.438     426.815
  C      145.978    -360.820     424.903
  O      145.745    -359.444     425.228
  C      147.415    -360.998     424.452
  O      147.827    -359.983     423.532
  C      148.186    -361.022     425.795
  N      149.331    -361.953     425.747
  C      150.238    -361.789     424.702
  O      150.154    -360.870     423.887
  N      151.186    -362.754     424.574
  C      151.275    -363.883     425.352
  O      151.921    -364.881     425.045
  C      150.446    -363.883     426.570
  C      149.503    -362.943     426.702
  O      146.896    -366.080     425.701
  O      145.075    -365.461     424.007
  H      147.705    -359.120     423.985
  H      146.412    -366.930     425.657
  H      151.753    -362.719     423.737
  H      150.598    -364.675     427.293
  H      148.856    -362.945     427.562
  H      148.575    -360.022     426.055
  H      147.516    -361.962     423.948
  H      145.264    -361.156     424.140
  H      145.181    -361.261     426.879
  H      145.892    -363.681     426.936
  H      144.732    -363.336     425.675
  P      144.988    -358.540     424.145
  C      145.702    -356.787     422.397
  O      146.133    -357.756     423.333
  O      143.881    -357.686     424.665
  O      144.460    -359.605     423.072
  H      143.743    -359.216     422.539
  H      146.466    -356.014     422.313
  H      144.757    -356.318     422.714
  H      145.559    -357.259     421.423
  H      148.189    -365.630     421.455
  H      146.866    -364.519     421.715
  H      146.597    -366.241     421.835

 3  4  5  6  7  8  9  10  11  12  13  23  28  29  30  31  32 0
 6-311+G(2d,p)
 ****
 33  34 0
 6-311+G(2d,p)
 ****
 1  2  14  15  16  17  18  19  20  21  22  24  25  26  27 0
 3-21G
 ****
 35  36  37  38  39  40  41  42  43  44  45 0
 3-21G
 ****


