%nproc=1
%NoSave
%Mem=1900MB
#P OB98/GEN NMR

erre ene a

0 1
  C      -72.761     268.222     290.181
  O      -73.311     268.226     291.487
  H      -72.875     269.225     289.758
  H      -73.300     267.514     289.551
  H      -71.698     267.971     290.207
  P      -73.148     266.916     292.397
  C      -70.782     267.438     293.286
  O      -72.161     267.293     293.609
  C      -70.073     268.318     294.327
  O      -70.605     269.667     294.236
  C      -70.265     267.838     295.773
  O      -69.055     268.060     296.506
  C      -71.363     268.744     296.303
  O      -71.304     268.892     297.721
  C      -71.092     270.039     295.541
  N      -74.146     273.250     297.988
  C      -72.946     272.685     298.381
  N      -72.504     272.999     299.620
  N      -72.251     271.869     297.635
  C      -72.797     271.663     296.407
  C      -73.972     272.166     295.897
  C      -74.753     273.046     296.748
  O      -75.824     273.568     296.461
  N      -74.208     271.707     294.623
  C      -73.172     270.924     294.365
  N      -72.299     270.854     295.418
  O      -72.777     265.669     291.651
  O      -74.567     266.762     293.123
  H      -70.409     269.239     297.935
  H      -75.086     266.038     292.728
  H      -74.647     273.859     298.609
  H      -73.013     270.383     293.438
  H      -70.337     270.666     296.029
  H      -72.346     268.330     296.041
  H      -72.980     273.633     300.245
  H      -70.541     266.785     295.825
  H      -71.616     272.617     299.925
  H      -69.007     268.373     294.070
  H      -70.710     267.908     292.296
  H      -70.312     266.451     293.250
  P      -68.180     266.796     296.969
  C      -66.026     267.456     295.732
  O      -66.630     267.221     296.998
  O      -68.469     265.518     296.252
  O      -68.538     266.669     298.533
  H      -68.540     265.722     298.781
  H      -65.001     267.730     295.871
  H      -66.543     268.248     295.232
  H      -66.080     266.566     295.140

 6  7  8  9  10  11  12  13  14  15  26  29  33  34 0
 6-311+G(2d,p)
 ****
 36  38  39  40  41 0
 6-311+G(2d,p)
 ****
 1  2  3  4  5  16  17  18  19  20  21  22  23  24  25 0
 3-21G
 ****
 27  28  30  31  32  35  37  42  43  44  45  46  47 0
 3-21G
 ****
 48  49 0
 3-21G
 ****


