%nproc=1
%NoSave
%Mem=1900MB
#P OB98/GEN NMR

erre ene a

0 1
  C     -391.042    -296.830     428.107
  O     -391.117    -297.706     429.210
  H     -391.335    -297.376     427.208
  H     -390.019    -296.468     427.976
  H     -391.724    -295.987     428.243
  P     -390.673    -297.171     430.655
  C     -389.180    -299.145     431.388
  O     -390.417    -298.462     431.570
  C     -389.311    -300.608     431.833
  O     -389.709    -300.611     433.226
  C     -390.368    -301.373     431.023
  O     -389.871    -302.583     430.463
  C     -391.547    -301.461     431.988
  O     -392.406    -302.556     431.757
  C     -390.871    -301.449     433.363
  N     -391.735    -300.962     434.438
  C     -392.722    -301.825     434.906
  O     -392.918    -302.966     434.497
  N     -393.516    -301.329     435.910
  C     -393.429    -300.083     436.462
  O     -394.167    -299.696     437.361
  C     -392.384    -299.209     435.905
  C     -391.601    -299.681     434.935
  O     -391.568    -296.141     431.262
  O     -389.195    -296.599     430.419
  H     -393.016    -302.297     431.029
  H     -389.224    -295.622     430.411
  H     -394.225    -301.946     436.268
  H     -392.296    -298.212     436.312
  H     -390.820    -299.063     434.502
  H     -390.540    -302.452     433.635
  H     -392.150    -300.550     431.879
  H     -390.677    -300.797     430.141
  H     -388.327    -301.084     431.768
  H     -388.423    -298.631     431.989
  H     -388.889    -299.101     430.333
  P     -389.877    -302.949     428.910
  C     -390.735    -305.420     429.178
  O     -389.710    -304.534     428.760
  O     -389.024    -302.095     428.035
  O     -391.412    -302.713     428.472
  H     -391.389    -302.419     427.539
  H     -390.431    -306.429     428.994
  H     -391.631    -305.212     428.631
  H     -390.916    -305.287     430.224

 6  7  8  9  10  11  12  13  14  15  16  26  31  32  33  34  35 0
 6-311+G(2d,p)
 ****
 36  37 0
 6-311+G(2d,p)
 ****
 1  2  3  4  5  17  18  19  20  21  22  23  24  25 0
 3-21G
 ****
 27  28  29  30  38  39  40  41  42  43  44  45 0
 3-21G
 ****


