%nproc=1
%NoSave
%Mem=1900MB
#P OB98/GEN NMR

erre ene a

0 1
  C     -118.867    -225.681     -11.476
  O     -117.765    -225.605     -10.597
  H     -119.019    -226.727     -11.761
  H     -118.673    -225.098     -12.378
  H     -119.772    -225.315     -10.982
  P     -117.332    -224.141     -10.102
  C     -116.514    -222.000     -11.327
  O     -117.232    -223.222     -11.413
  C     -116.385    -221.381     -12.715
  O     -115.536    -222.209     -13.544
  C     -117.702    -221.266     -13.471
  O     -118.479    -220.161     -13.034
  C     -117.203    -221.107     -14.899
  O     -116.862    -219.742     -15.186
  C     -115.946    -222.006     -14.914
  N     -116.182    -223.272     -15.607
  C     -116.588    -223.163     -16.934
  O     -116.742    -222.084     -17.506
  N     -116.845    -224.341     -17.577
  C     -116.779    -225.592     -17.022
  O     -117.094    -226.604     -17.633
  C     -116.333    -225.641     -15.619
  C     -116.068    -224.496     -14.981
  O     -115.805    -224.344      -9.659
  O     -118.168    -223.574      -9.001
  H     -115.745    -224.393      -8.689
  H     -116.204    -219.478     -14.513
  H     -117.149    -224.285     -18.538
  H     -116.261    -226.616     -15.150
  H     -115.757    -224.510     -13.939
  H     -115.116    -221.495     -15.417
  H     -117.960    -221.405     -15.625
  H     -118.265    -222.205     -13.395
  H     -115.907    -220.395     -12.614
  H     -115.516    -222.191     -10.924
  H     -117.045    -221.324     -10.645
  P     -119.854    -220.451     -12.261
  C     -122.317    -220.562     -13.168
  O     -120.939    -220.811     -13.385
  O     -120.254    -218.976     -11.786
  O     -119.727    -221.455     -11.164
  H     -120.015    -218.290     -12.430
  H     -122.875    -220.868     -14.028
  H     -122.468    -219.516     -12.999
  H     -122.649    -221.113     -12.313

 6  7  8  9  10  11  12  13  14  15  16  27  31  32  33  34  35 0
 6-311+G(2d,p)
 ****
 36  37 0
 6-311+G(2d,p)
 ****
 1  2  3  4  5  17  18  19  20  21  22  23  24  25 0
 3-21G
 ****
 26  28  29  30  38  39  40  41  42  43  44  45 0
 3-21G
 ****


