%nproc=1
%NoSave
%Mem=1900MB
#P OB98/GEN NMR

erre ene a

0 1
  C      303.066     537.071     555.582
  O      303.232     537.281     556.966
  H      302.060     536.681     555.402
  H      303.792     536.333     555.227
  H      303.181     538.000     555.020
  P      304.498     538.114     557.476
  C      304.169     536.820     559.684
  O      304.455     538.073     559.081
  C      304.479     536.848     561.185
  O      305.844     537.332     561.371
  C      303.554     537.765     561.992
  O      303.427     537.201     563.307
  C      304.360     539.045     562.045
  O      303.898     539.911     563.067
  C      305.774     538.492     562.219
  N      306.809     539.474     561.895
  C      307.327     540.204     562.960
  O      306.947     540.080     564.124
  N      308.291     541.122     562.641
  C      308.720     541.429     561.383
  O      309.561     542.285     561.154
  C      308.100     540.658     560.289
  C      307.187     539.727     560.594
  O      304.658     539.478     556.892
  O      305.753     537.175     557.137
  H      303.996     539.484     563.945
  H      306.544     537.719     556.961
  H      308.689     541.653     563.402
  H      308.412     540.880     559.280
  H      306.710     539.145     559.810
  H      305.938     538.164     563.255
  H      304.275     539.589     561.101
  H      302.569     537.891     561.538
  H      304.455     535.818     561.570
  H      304.790     536.055     559.187
  H      303.114     536.569     559.526
  P      302.273     536.156     563.682
  C      302.763     536.661     566.165
  O      302.497     535.657     565.188
  O      302.093     535.055     562.690
  O      300.935     537.043     563.790
  H      300.158     536.498     563.578
  H      302.892     536.201     567.123
  H      301.941     537.345     566.206
  H      303.655     537.190     565.900

 6  7  8  9  10  11  12  13  14  15  16  26  31  32  33  34  35 0
 6-311+G(2d,p)
 ****
 36  37 0
 6-311+G(2d,p)
 ****
 1  2  3  4  5  17  18  19  20  21  22  23  24  25 0
 3-21G
 ****
 27  28  29  30  38  39  40  41  42  43  44  45 0
 3-21G
 ****


