%nproc=1
%NoSave
%Mem=1900MB
#P OB98/GEN NMR

erre ene a

0 1
  C      435.449    -363.339      26.483
  O      435.568    -361.915      26.310
  P      435.765    -361.316      24.824
  C      438.207    -360.371      24.725
  O      436.819    -360.113      24.892
  C      438.986    -359.913      25.958
  O      438.944    -360.930      26.987
  C      440.465    -359.660      25.708
  O      440.687    -358.422      25.054
  C      441.021    -359.700      27.129
  O      440.843    -358.427      27.793
  C      440.142    -360.781      27.793
  N      440.840    -362.051      27.950
  C      441.137    -362.437      29.252
  O      440.891    -361.734      30.235
  N      441.759    -363.651      29.391
  C      442.170    -364.465      28.377
  O      442.748    -365.533      28.560
  C      441.900    -363.964      27.018
  C      441.266    -362.800      26.863
  O      434.383    -360.539      24.596
  O      435.989    -362.327      23.749
  H      441.107    -358.562      28.726
  H      434.173    -360.515      23.646
  H      441.956    -363.962      30.332
  H      442.230    -364.575      26.175
  H      441.060    -362.423      25.869
  H      439.798    -360.439      28.778
  H      442.092    -359.918      27.160
  H      440.894    -360.486      25.140
  H      438.499    -359.008      26.353
  H      438.575    -359.824      23.848
  H      438.343    -361.447      24.553
  P      441.547    -358.478      23.691
  C      443.048    -356.510      24.560
  O      442.199    -357.020      23.544
  O      440.386    -358.518      22.598
  O      442.494    -359.631      23.644
  H      439.597    -358.008      22.876
  H      443.636    -357.315      25.028
  H      442.452    -356.007      25.319
  H      443.743    -355.792      24.111
  H      435.325    -363.563      27.522
  H      436.334    -363.818      26.118
  H      434.600    -363.695      25.938

 3  4  5  6  7  8  9  10  11  12  13  23  28  29  30  31  32 0
 6-311+G(2d,p)
 ****
 33  34 0
 6-311+G(2d,p)
 ****
 1  2  14  15  16  17  18  19  20  21  22  24  25  26 0
 3-21G
 ****
 27  35  36  37  38  39  40  41  42  43  44  45 0
 3-21G
 ****


