%nproc=1
%NoSave
%Mem=1900MB
#P OB98/GEN NMR

erre ene a

0 1
  C      565.975      78.481     -29.271
  O      565.429      77.190     -29.451
  P      564.395      76.680     -28.329
  C      562.200      75.261     -28.377
  O      563.279      75.822     -29.102
  C      561.155      74.698     -29.342
  O      560.520      75.775     -30.075
  C      561.734      73.745     -30.401
  O      561.891      72.452     -29.862
  C      560.680      73.835     -31.499
  O      559.556      72.981     -31.197
  C      560.272      75.316     -31.439
  N      561.088      76.281     -36.336
  C      560.414      75.237     -35.737
  N      559.834      74.331     -36.567
  N      560.314      75.082     -34.440
  C      560.942      76.051     -33.739
  C      561.664      77.125     -34.218
  C      561.718      77.310     -35.641
  O      562.222      78.271     -36.223
  N      562.188      77.877     -33.199
  C      561.768      77.271     -32.104
  N      560.998      76.163     -32.368
  O      563.629      78.021     -27.902
  O      565.013      75.973     -27.162
  H      558.837      73.152     -31.848
  H      564.006      78.389     -27.082
  H      561.115      76.362     -37.345
  H      561.977      77.601     -31.094
  H      559.202      75.459     -31.643
  H      561.058      73.513     -32.467
  H      559.889      74.374     -37.579
  H      562.686      74.137     -30.778
  H      559.339      73.561     -36.148
  H      560.386      74.187     -28.753
  H      561.732      76.043     -27.756
  H      562.576      74.466     -27.714
  P      562.810      71.413     -30.695
  C      564.520      69.546     -30.098
  O      563.671      70.576     -29.628
  O      563.888      72.365     -31.399
  O      562.057      70.594     -31.684
  H      564.093      72.009     -32.288
  H      565.367      69.454     -29.421
  H      564.882      69.750     -31.106
  H      563.961      68.604     -30.100
  H      566.643      78.702     -30.078
  H      566.510      78.516     -28.345
  H      565.185      79.203     -29.254

 3  4  5  6  7  8  9  10  11  12  23  26  30  31 0
 6-311+G(2d,p)
 ****
 33  35  36  37  38 0
 6-311+G(2d,p)
 ****
 1  2  13  14  15  16  17  18  19  20  21  22  24  25 0
 3-21G
 ****
 27  28  29  32  34  39  40  41  42  43  44  45  46  47  48  49 0
 3-21G
 ****


