%nproc=1
%NoSave
%Mem=1900MB
#P OB98/GEN NMR

erre ene a

0 1
  C       53.473    -180.358       5.269
  O       52.428    -181.336       5.345
  P       52.430    -182.682       4.475
  C       54.116    -184.626       4.287
  O       53.402    -183.755       5.160
  C       54.627    -185.869       5.022
  O       55.521    -185.496       6.087
  C       53.543    -186.714       5.679
  O       52.840    -187.481       4.719
  C       54.368    -187.528       6.670
  O       54.976    -188.662       6.029
  C       55.438    -186.508       7.109
  N       55.155    -185.929       8.415
  C       55.848    -186.468       9.502
  O       56.609    -187.423       9.345
  N       55.642    -185.926      10.747
  C       54.766    -184.982      10.902
  N       54.610    -184.479      12.157
  C       53.948    -184.448       9.798
  C       54.195    -184.961       8.594
  O       52.695    -182.464       3.020
  O       50.973    -183.315       4.685
  H       55.288    -188.352       5.157
  H       50.718    -183.803       3.880
  H       53.210    -183.682       9.974
  H       53.645    -184.619       7.725
  H       56.426    -186.984       7.144
  H       53.768    -187.913       7.500
  H       52.851    -186.066       6.230
  H       55.197    -186.472       4.302
  H       55.191    -184.863      12.891
  H       54.968    -184.074       3.874
  H       53.958    -183.744      12.385
  H       53.455    -184.917       3.464
  P       51.297    -187.170       4.427
  C       49.956    -185.678       2.826
  O       51.232    -186.189       3.163
  O       50.490    -186.740       5.606
  O       50.741    -188.549       3.827
  H       49.803    -188.645       4.075
  H       50.087    -184.758       2.251
  H       49.369    -185.458       3.722
  H       49.424    -186.409       2.211
  H       53.255    -179.551       5.937
  H       53.540    -179.985       4.268
  H       54.404    -180.808       5.545

 3  4  5  6  7  8  9  10  11  12  13  23  27  28  29  30  32 0
 6-311+G(2d,p)
 ****
 34  35 0
 6-311+G(2d,p)
 ****
 1  2  14  15  16  17  18  19  20  21  22  24  25  26 0
 3-21G
 ****
 31  33  36  37  38  39  40  41  42  43  44  45  46 0
 3-21G
 ****


