%nproc=1
%NoSave
%Mem=1900MB
#P OB98/GEN NMR

erre ene a

0 1
  C      104.116     337.708      42.298
  O      105.122     336.694      42.198
  P      105.024     335.399      43.130
  C      104.985     333.745      41.142
  O      104.327     334.205      42.318
  C      104.138     332.661      40.462
  O      102.750     333.063      40.356
  C      104.575     332.388      39.027
  O      105.817     331.751      38.851
  C      103.350     331.696      38.447
  O      103.327     330.306      38.761
  C      102.198     332.437      39.175
  N      101.525     333.415      38.320
  C      100.354     332.989      37.702
  O       99.914     331.845      37.807
  N       99.728     333.915      36.917
  C      100.153     335.182      36.665
  O       99.559     335.964      35.937
  C      101.412     335.569      37.333
  C      102.031     334.685      38.120
  O      104.496     335.626      44.509
  O      106.560     334.903      43.203
  H      103.279     330.224      39.730
  H      106.736     334.619      44.118
  H       98.869     333.620      36.465
  H      101.786     336.573      37.156
  H      102.954     334.959      38.619
  H      101.445     331.721      39.526
  H      103.321     331.784      37.352
  H      104.661     333.358      38.517
  H      104.173     331.760      41.068
  H      105.967     333.354      41.405
  H      105.157     334.597      40.474
  P      107.223     332.487      39.085
  C      107.682     331.177      41.281
  O      107.564     332.431      40.654
  O      107.446     333.779      38.379
  O      108.254     331.401      38.492
  H      109.010     331.867      38.105
  H      107.902     331.331      42.343
  H      108.494     330.603      40.837
  H      106.745     330.618      41.191
  H      104.335     338.497      41.609
  H      104.101     338.099      43.294
  H      103.160     337.286      42.066

 3  4  5  6  7  8  9  10  11  12  13  23  28  29  30  31  32 0
 6-311+G(2d,p)
 ****
 33  34 0
 6-311+G(2d,p)
 ****
 1  2  14  15  16  17  18  19  20  21  22  24  25  26  27 0
 3-21G
 ****
 35  36  37  38  39  40  41  42  43  44  45 0
 3-21G
 ****


