%nproc=1
%NoSave
%Mem=1900MB
#P OB98/GEN NMR

erre ene a

0 1
  C      474.132     542.781     257.201
  O      474.252     542.490     258.578
  H      474.500     543.799     257.030
  H      473.080     542.737     256.898
  H      474.724     542.090     256.604
  P      473.877     541.017     259.091
  C      475.140     538.809     259.465
  O      475.181     540.108     258.885
  C      476.227     537.920     258.866
  O      475.911     537.653     257.479
  C      477.629     538.541     258.917
  O      478.572     537.505     259.186
  C      477.831     539.058     257.506
  O      479.214     539.132     257.150
  C      477.041     538.046     256.675
  N      477.164     537.427     251.664
  C      477.634     536.614     252.674
  N      478.267     535.476     252.300
  N      477.519     536.890     253.949
  C      476.858     538.055     254.176
  C      476.344     538.949     253.269
  C      476.494     538.636     251.858
  O      476.107     539.318     250.921
  N      475.766     540.024     253.897
  C      475.939     539.791     255.186
  N      476.606     538.611     255.405
  O      472.620     540.439     258.517
  O      473.778     541.170     260.681
  H      479.650     538.329     257.518
  H      472.850     541.244     260.967
  H      477.293     537.174     250.700
  H      475.610     540.430     255.984
  H      477.629     537.152     256.446
  H      477.399     540.066     257.411
  H      478.386     535.186     251.343
  H      477.718     539.333     259.666
  H      478.601     534.854     253.022
  H      476.213     536.952     259.389
  H      474.157     538.376     259.266
  H      475.277     538.893     260.547
  P      479.274     537.457     260.631
  C      478.991     536.156     262.840
  O      478.569     536.285     261.484
  O      479.409     538.767     261.326
  O      480.717     536.824     260.304
  H      481.361     537.165     260.956
  H      478.459     535.352     263.304
  H      478.789     537.067     263.364
  H      480.041     535.953     262.869

 6  7  8  9  10  11  12  13  14  15  26  29  33  34 0
 6-311+G(2d,p)
 ****
 36  38  39  40  41 0
 6-311+G(2d,p)
 ****
 1  2  3  4  5  16  17  18  19  20  21  22  23  24  25 0
 3-21G
 ****
 27  28  30  31  32  35  37  42  43  44  45  46  47 0
 3-21G
 ****
 48  49 0
 3-21G
 ****


