%nproc=1
%NoSave
%Mem=1900MB
#P OB98/GEN NMR

erre ene a

0 1
  C     -112.010     165.831    -102.223
  O     -111.610     166.400    -103.453
  H     -111.877     164.748    -102.280
  H     -113.065     166.043    -102.034
  H     -111.400     166.215    -101.401
  P     -111.560     167.997    -103.585
  C     -110.570     167.551    -105.925
  O     -111.468     168.333    -105.149
  C     -111.355     166.622    -106.847
  O     -112.392     167.358    -107.532
  C     -110.510     165.984    -107.942
  O     -109.722     164.926    -107.430
  C     -111.589     165.556    -108.923
  O     -112.197     164.322    -108.514
  C     -112.590     166.727    -108.817
  N     -112.453     167.693    -109.907
  C     -113.219     167.458    -111.044
  O     -113.957     166.483    -111.172
  N     -113.086     168.376    -112.052
  C     -112.199     169.413    -112.079
  O     -112.056     170.154    -113.045
  C     -111.398     169.598    -110.860
  C     -111.560     168.745    -109.847
  O     -110.549     168.684    -102.731
  O     -113.049     168.452    -103.209
  H     -111.523     163.627    -108.646
  H     -113.054     168.833    -102.311
  H     -113.622     168.216    -112.890
  H     -110.694     170.418    -110.838
  H     -110.974     168.861    -108.944
  H     -113.620     166.349    -108.825
  H     -111.196     165.402    -109.928
  H     -109.878     166.741    -108.420
  H     -111.839     165.853    -106.230
  H     -109.948     166.954    -105.249
  H     -109.924     168.221    -106.504
  P     -108.148     164.896    -107.712
  C     -108.230     163.546    -105.526
  O     -107.493     163.827    -106.712
  O     -107.477     166.229    -107.740
  O     -108.031     164.173    -109.135
  H     -107.608     164.781    -109.772
  H     -107.701     162.824    -104.940
  H     -109.192     163.157    -105.788
  H     -108.351     164.446    -104.960

 6  7  8  9  10  11  12  13  14  15  16  26  31  32  33  34  35 0
 6-311+G(2d,p)
 ****
 36  37 0
 6-311+G(2d,p)
 ****
 1  2  3  4  5  17  18  19  20  21  22  23  24  25 0
 3-21G
 ****
 27  28  29  30  38  39  40  41  42  43  44  45 0
 3-21G
 ****


