%nproc=1
%NoSave
%Mem=1900MB
#P OB98/GEN NMR

erre ene a

0 1
  C      121.440      42.915     141.378
  O      120.781      42.358     140.263
  P      121.080      42.899     138.783
  C      119.297      44.441     137.751
  O      120.376      44.339     138.679
  C      117.993      43.995     138.408
  O      117.679      44.818     139.562
  C      116.769      44.122     137.513
  O      116.707      43.290     136.374
  C      115.644      43.993     138.527
  O      115.388      42.628     138.850
  C      116.243      44.739     139.746
  N      115.645      46.060     139.927
  C      114.874      46.229     141.074
  O      114.686      45.341     141.907
  N      114.289      47.457     141.224
  C      114.359      48.494     140.336
  O      113.773      49.554     140.518
  C      115.174      48.252     139.139
  C      115.770      47.065     138.989
  O      120.734      41.956     137.680
  O      122.634      43.289     138.843
  H      114.740      42.613     139.582
  H      122.860      43.968     139.504
  H      113.716      47.597     142.041
  H      115.261      49.056     138.422
  H      116.377      46.862     138.109
  H      116.079      44.158     140.664
  H      114.706      44.417     138.150
  H      116.736      45.151     137.126
  H      118.125      42.970     138.769
  H      119.502      43.797     136.891
  H      119.229      45.476     137.390
  P      115.726      43.559     135.136
  C      113.680      41.984     134.900
  O      114.249      43.098     135.556
  O      116.218      43.153     133.787
  O      115.590      45.163     135.178
  H      115.458      45.494     134.271
  H      112.660      41.840     135.275
  H      114.259      41.081     135.106
  H      113.629      42.160     133.820
  H      121.109      42.425     142.270
  H      121.215      43.959     141.441
  H      122.496      42.784     141.270

 3  4  5  6  7  8  9  10  11  12  13  23  28  29  30  31  32 0
 6-311+G(2d,p)
 ****
 33  34 0
 6-311+G(2d,p)
 ****
 1  2  14  15  16  17  18  19  20  21  22  24  25  26  27 0
 3-21G
 ****
 35  36  37  38  39  40  41  42  43  44  45 0
 3-21G
 ****


