%nproc=1
%NoSave
%Mem=1900MB
#P OB98/GEN NMR

erre ene a

0 1
  C       18.107      19.446     -78.679
  O       17.835      19.505     -80.085
  P       18.041      18.257     -81.075
  C       20.493      18.760     -81.700
  O       19.593      17.843     -81.094
  C       20.988      18.258     -83.062
  O       21.954      17.178     -82.879
  C       19.875      17.724     -83.985
  O       20.212      18.140     -85.314
  C       20.021      16.219     -83.817
  O       19.411      15.469     -84.850
  C       21.548      16.111     -83.762
  N       22.070      14.829     -83.298
  C       22.166      13.788     -84.229
  O       21.772      13.923     -85.387
  N       22.696      12.587     -83.819
  C       23.088      12.432     -82.593
  N       23.612      11.222     -82.257
  C       22.988      13.493     -81.576
  C       22.477      14.651     -81.993
  O       17.472      18.476     -82.440
  O       17.322      17.019     -80.359
  H       16.914      16.448     -81.037
  H       19.744      15.805     -85.703
  H       23.332      13.325     -80.565
  H       22.396      15.492     -81.311
  H       21.965      16.337     -84.751
  H       19.556      15.925     -82.871
  H       18.880      18.106     -83.738
  H       21.526      19.080     -83.551
  H       23.674      10.521     -82.986
  H       21.356      18.888     -81.039
  H       23.955      10.996     -81.335
  H       19.996      19.731     -81.808
  P       19.411      19.352     -85.993
  C       17.965      18.079     -87.749
  O       18.011      18.774     -86.519
  O       20.219      19.552     -87.367
  O       19.374      20.634     -85.226
  H       20.106      20.471     -87.673
  H       17.351      17.183     -87.624
  H       18.958      17.778     -88.093
  H       17.505      18.722     -88.504
  H       17.894      20.396     -78.234
  H       19.138      19.203     -78.525
  H       17.492      18.695     -78.228

 3  4  5  6  7  8  9  10  11  12  13  24  27  28  29  30  32 0
 6-311+G(2d,p)
 ****
 34  35 0
 6-311+G(2d,p)
 ****
 1  2  14  15  16  17  18  19  20  21  22  23  25  26 0
 3-21G
 ****
 31  33  36  37  38  39  40  41  42  43  44  45  46 0
 3-21G
 ****


