%nproc=1
%NoSave
%Mem=1900MB
#P OB98/GEN NMR

erre ene a

0 1
  C      549.987     -87.677    -110.623
  O      549.577     -88.838    -109.902
  P      548.028     -89.086    -109.562
  C      548.081     -91.627    -109.844
  O      547.853     -90.554    -108.934
  C      549.560     -92.038    -109.946
  O      550.156     -92.161    -108.631
  C      549.811     -93.357    -110.678
  O      551.067     -93.199    -111.350
  C      549.929     -94.348    -109.534
  O      550.577     -95.548    -109.915
  C      550.669     -93.496    -108.492
  N      550.493     -94.010    -107.133
  C      551.568     -94.698    -106.575
  O      552.584     -94.906    -107.237
  N      551.454     -95.178    -105.293
  C      550.323     -95.061    -104.662
  N      550.258     -95.584    -103.405
  C      549.131     -94.419    -105.250
  C      549.295     -93.911    -106.473
  O      547.085     -88.771    -110.676
  O      547.752     -88.118    -108.310
  H      551.524     -95.351    -110.087
  H      546.819     -87.827    -108.326
  H      548.201     -94.371    -104.702
  H      548.482     -93.411    -106.990
  H      551.741     -93.465    -108.713
  H      548.930     -94.610    -109.169
  H      549.023     -93.621    -111.387
  H      550.088     -91.220    -110.458
  H      551.088     -96.044    -103.051
  H      547.725     -91.325    -110.834
  H      549.400     -95.647    -102.884
  H      547.479     -92.488    -109.529
  P      551.511     -94.151    -112.559
  C      552.590     -92.976    -114.552
  O      552.786     -93.470    -113.241
  O      550.416     -94.515    -113.504
  O      552.123     -95.454    -111.848
  H      552.159     -96.184    -112.498
  H      553.454     -92.357    -114.832
  H      551.685     -92.380    -114.618
  H      552.523     -93.814    -115.255
  H      551.049     -87.692    -110.749
  H      549.705     -86.801    -110.078
  H      549.514     -87.667    -111.583

 3  4  5  6  7  8  9  10  11  12  13  23  27  28  29  30  32 0
 6-311+G(2d,p)
 ****
 34  35 0
 6-311+G(2d,p)
 ****
 1  2  14  15  16  17  18  19  20  21  22  24  25  26 0
 3-21G
 ****
 31  33  36  37  38  39  40  41  42  43  44  45  46 0
 3-21G
 ****


