%nproc=1
%NoSave
%Mem=1900MB
#P OB98/GEN NMR

erre ene a

0 1
  C      -71.745     -59.429      -7.683
  O      -71.886     -58.070      -7.325
  H      -72.653     -59.752      -8.199
  H      -71.611     -60.045      -6.789
  H      -70.892     -59.555      -8.355
  P      -70.679     -57.409      -6.499
  C      -71.542     -58.446      -4.278
  O      -70.463     -58.319      -5.194
  C      -71.255     -59.586      -3.306
  O      -71.205     -60.842      -4.022
  C      -69.916     -59.472      -2.592
  O      -69.953     -58.545      -1.520
  C      -69.715     -60.904      -2.125
  O      -70.404     -61.159      -0.891
  C      -70.332     -61.721      -3.283
  N      -69.312     -62.324      -4.134
  C      -69.580     -63.617      -4.574
  O      -70.603     -64.232      -4.276
  N      -68.610     -64.200      -5.343
  C      -67.408     -63.644      -5.674
  O      -66.550     -64.248      -6.307
  C      -67.186     -62.268      -5.195
  C      -68.129     -61.684      -4.450
  O      -71.328     -56.064      -5.923
  O      -69.441     -57.144      -7.290
  H      -71.026     -55.298      -6.447
  H      -70.290     -62.112      -0.707
  H      -68.781     -65.141      -5.662
  H      -66.244     -61.794      -5.446
  H      -67.979     -60.679      -4.067
  H      -70.962     -62.528      -2.886
  H      -68.661     -61.126      -1.950
  H      -69.123     -59.219      -3.308
  H      -72.078     -59.638      -2.579
  H      -72.464     -58.668      -4.826
  H      -71.669     -57.499      -3.743
  P      -68.589     -57.824      -1.082
  C      -68.303     -59.861       0.555
  O      -67.705     -58.936      -0.335
  O      -69.105     -56.878       0.099
  O      -67.896     -57.120      -2.199
  H      -69.817     -57.281       0.627
  H      -67.552     -60.515       0.948
  H      -69.038     -60.436       0.031
  H      -68.771     -59.331       1.359

 6  7  8  9  10  11  12  13  14  15  16  27  31  32  33  34  35 0
 6-311+G(2d,p)
 ****
 36  37 0
 6-311+G(2d,p)
 ****
 1  2  3  4  5  17  18  19  20  21  22  23  24  25 0
 3-21G
 ****
 26  28  29  30  38  39  40  41  42  43  44  45 0
 3-21G
 ****


