%nproc=1
%NoSave
%Mem=1900MB
#P OB98/GEN NMR

erre ene a

0 1
  C      -77.396     -69.719     178.076
  O      -77.685     -71.101     177.951
  P      -76.701     -72.204     178.559
  C      -74.660     -72.165     176.909
  O      -75.206     -71.819     178.164
  C      -73.181     -72.530     177.091
  O      -72.506     -71.507     177.852
  C      -73.020     -73.855     177.832
  O      -72.876     -74.925     176.916
  C      -71.785     -73.612     178.678
  O      -70.591     -73.805     177.895
  C      -71.948     -72.119     179.047
  N      -72.821     -71.774     180.186
  C      -72.499     -72.229     181.463
  O      -71.496     -72.886     181.720
  N      -73.401     -71.914     182.449
  C      -74.536     -71.173     182.288
  O      -75.444     -71.104     183.107
  C      -74.672     -70.505     180.990
  C      -73.839     -70.847     180.010
  O      -77.002     -73.491     177.661
  O      -76.874     -72.486     180.016
  H      -70.543     -74.749     177.666
  H      -77.617     -74.097     178.119
  H      -73.243     -72.357     183.348
  H      -75.481     -69.795     180.861
  H      -73.944     -70.393     179.027
  H      -70.975     -71.652     179.234
  H      -71.725     -74.322     179.501
  H      -73.875     -74.024     178.501
  H      -72.705     -72.585     176.102
  H      -74.762     -71.322     176.211
  H      -75.208     -73.008     176.478
  P      -73.352     -76.395     177.330
  C      -71.243     -77.824     177.635
  O      -72.178     -76.969     178.263
  O      -73.770     -77.283     176.206
  O      -74.558     -76.114     178.347
  H      -75.415     -76.191     177.874
  H      -70.411     -77.997     178.318
  H      -70.865     -77.370     176.715
  H      -71.719     -78.785     177.405
  H      -78.170     -69.149     177.607
  H      -76.460     -69.506     177.603
  H      -77.339     -69.459     179.112

 3  4  5  6  7  8  9  10  11  12  13  23  28  29  30  31  32 0
 6-311+G(2d,p)
 ****
 33  34 0
 6-311+G(2d,p)
 ****
 1  2  14  15  16  17  18  19  20  21  22  24  25  26  27 0
 3-21G
 ****
 35  36  37  38  39  40  41  42  43  44  45 0
 3-21G
 ****


