%nproc=1
%NoSave
%Mem=1900MB
#P OB98/GEN NMR

erre ene a

0 1
  C      868.223      12.227    -516.214
  O      868.958      12.364    -517.435
  P      869.605      11.030    -518.033
  C      868.480      10.923    -520.380
  O      868.555      10.379    -519.067
  C      868.528       9.795    -521.411
  O      869.795       9.099    -521.386
  C      867.477       8.714    -521.177
  O      866.192       9.165    -521.572
  C      868.038       7.583    -522.026
  O      867.728       7.792    -523.414
  C      869.552       7.737    -521.810
  N      871.344       3.010    -520.969
  C      870.897       3.624    -522.084
  N      870.432       4.878    -522.227
  C      870.474       5.540    -521.053
  C      870.910       5.045    -519.833
  C      871.358       3.712    -519.806
  N      871.805       3.092    -518.667
  N      870.795       6.017    -518.857
  C      870.281       7.058    -519.468
  N      870.078       6.823    -520.799
  O      869.587      10.013    -516.797
  O      870.981      11.217    -518.569
  H      868.266       7.157    -523.936
  H      870.493       9.878    -516.460
  H      870.910       3.015    -522.986
  H      870.037       7.997    -518.992
  H      870.128       7.561    -522.729
  H      867.639       6.594    -521.747
  H      867.460       8.425    -520.125
  H      868.399      10.235    -522.407
  H      869.308      11.614    -520.548
  H      872.038       2.110    -518.720
  H      871.744       3.579    -517.782
  H      867.566      11.508    -520.471
  P      864.997       9.015    -520.513
  C      864.500      11.298    -519.450
  O      865.312      10.149    -519.419
  O      865.396       7.663    -519.759
  O      863.624       9.054    -521.097
  H      866.340       7.655    -519.520
  H      864.803      11.970    -518.633
  H      863.450      11.021    -519.305
  H      864.621      11.822    -520.402
  H      867.842      13.182    -515.918
  H      868.869      11.848    -515.450
  H      867.409      11.549    -516.362

 3  4  5  6  7  8  9  10  11  12  22  25  29  30  31  32 0
 6-311+G(2d,p)
 ****
 33  36  37 0
 6-311+G(2d,p)
 ****
 1  2  13  14  15  16  17  18  19  20  21  23  24  26 0
 3-21G
 ****
 27  28  34  35  38  39  40  41  42  43  44  45  46  47  48 0
 3-21G
 ****


