%nproc=1
%NoSave
%Mem=1900MB
#P OB98/GEN NMR

erre ene a

0 1
  C       71.666     141.017     -68.694
  O       71.368     142.341     -69.092
  P       70.983     142.672     -70.608
  C       68.954     142.235     -72.108
  O       69.702     141.779     -70.988
  C       68.370     141.064     -72.899
  O       69.458     140.313     -73.506
  C       67.543     140.075     -72.065
  O       66.499     139.590     -72.916
  C       68.535     138.957     -71.789
  O       67.904     137.729     -71.445
  C       69.293     138.934     -73.111
  N       71.738     134.496     -72.437
  C       70.425     134.806     -72.449
  N       69.853     136.016     -72.608
  C       70.789     136.965     -72.773
  C       72.164     136.806     -72.755
  C       72.642     135.493     -72.594
  N       73.977     135.154     -72.616
  N       72.793     138.030     -72.900
  C       71.814     138.905     -73.004
  N       70.587     138.299     -72.997
  O       72.109     142.591     -71.584
  O       70.384     144.154     -70.542
  H       67.451     137.384     -72.237
  H       71.029     144.790     -70.912
  H       69.741     133.970     -72.316
  H       71.935     139.976     -73.083
  H       68.732     138.420     -73.901
  H       69.190     139.245     -70.958
  H       67.127     140.504     -71.149
  H       67.765     141.472     -73.718
  H       69.625     142.806     -72.755
  H       74.201     134.172     -72.625
  H       74.647     135.823     -72.992
  H       68.150     142.899     -71.772
  P       65.118     139.084     -72.278
  C       63.294     140.133     -70.821
  O       64.631     140.234     -71.276
  O       65.144     137.705     -71.708
  O       64.078     139.201     -73.496
  H       63.288     138.663     -73.301
  H       62.619     140.524     -71.586
  H       63.184     140.727     -69.910
  H       63.029     139.093     -70.601
  H       71.897     141.002     -67.649
  H       72.506     140.658     -69.251
  H       70.820     140.389     -68.881

 3  4  5  6  7  8  9  10  11  12  22  25  29  30  31  32 0
 6-311+G(2d,p)
 ****
 33  36  37 0
 6-311+G(2d,p)
 ****
 1  2  13  14  15  16  17  18  19  20  21  23  24  26 0
 3-21G
 ****
 27  28  34  35  38  39  40  41  42  43  44  45  46  47  48 0
 3-21G
 ****


