%nproc=1
%NoSave
%Mem=1900MB
#P OB98/GEN NMR

erre ene a

0 1
  C       96.160     -25.122      50.876
  O       97.275     -24.257      50.813
  H       96.443     -26.022      51.430
  H       95.844     -25.411      49.868
  H       95.333     -24.631      51.397
  P       97.096     -22.919      49.941
  C       97.015     -21.293      51.982
  O       96.303     -21.930      50.932
  C       96.036     -20.667      52.968
  O       95.305     -21.691      53.686
  C       96.687     -19.810      54.052
  O       97.079     -18.528      53.593
  C       95.543     -19.730      55.048
  O       94.542     -18.819      54.561
  C       95.035     -21.188      55.023
  N       95.679     -22.036      56.031
  C       94.829     -22.688      56.934
  O       93.608     -22.547      56.870
  N       95.391     -23.474      57.916
  C       96.676     -23.610      57.981
  N       97.172     -24.396      58.978
  C       97.608     -22.950      57.045
  C       97.048     -22.188      56.107
  O       95.973     -23.321      48.873
  O       98.341     -22.352      49.349
  H       93.775     -18.901      55.159
  H       95.680     -22.519      48.373
  H       98.675     -23.081      57.144
  H       97.667     -21.673      55.380
  H       93.949     -21.225      55.175
  H       95.851     -19.372      56.029
  H       97.531     -20.328      54.520
  H       95.300     -20.085      52.392
  H       96.514     -24.786      59.639
  H       97.655     -20.521      51.541
  H       98.158     -24.443      59.203
  H       97.640     -22.022      52.505
  P       98.612     -18.333      53.156
  C       98.079     -17.700      50.685
  O       98.691     -18.626      51.579
  O       99.334     -19.603      53.799
  O       99.237     -17.048      53.600
  H      100.246     -19.386      54.083
  H       98.217     -18.033      49.677
  H       98.528     -16.736      50.807
  H       97.033     -17.636      50.899

 6  7  8  9  10  11  12  13  14  15  16  26  30  31  32  33  35 0
 6-311+G(2d,p)
 ****
 37  38 0
 6-311+G(2d,p)
 ****
 1  2  3  4  5  17  18  19  20  21  22  23  24  25 0
 3-21G
 ****
 27  28  29  34  36  39  40  41  42  43  44  45  46 0
 3-21G
 ****


