%nproc=1
%NoSave
%Mem=1900MB
#P OB98/GEN NMR

erre ene a

0 1
  C     -412.890     -90.630     -94.923
  O     -412.951     -91.675     -95.878
  H     -411.839     -90.408     -94.716
  H     -413.373     -90.933     -93.993
  H     -413.368     -89.726     -95.314
  P     -414.396     -92.188     -96.346
  C     -413.264     -94.205     -97.497
  O     -414.250     -93.769     -96.569
  C     -413.405     -95.702     -97.746
  O     -412.863     -96.449     -96.639
  C     -414.854     -96.169     -97.919
  O     -415.297     -95.917     -99.241
  C     -414.698     -97.651     -97.610
  O     -414.121     -98.326     -98.744
  C     -413.702     -97.622     -96.437
  N     -412.946     -98.182     -91.458
  C     -412.089     -98.429     -92.522
  N     -410.878     -98.937     -92.206
  N     -412.412     -98.219     -93.768
  C     -413.676     -97.774     -93.932
  C     -414.618     -97.511     -92.960
  C     -414.239     -97.701     -91.578
  O     -414.956     -97.475     -90.605
  N     -415.822     -97.135     -93.514
  C     -415.590     -97.138     -94.811
  N     -414.309     -97.531     -95.120
  O     -415.008     -91.468     -97.512
  O     -415.296     -92.078     -95.028
  H     -414.820     -98.362     -99.429
  H     -415.755     -91.220     -94.986
  H     -412.644     -98.388     -90.516
  H     -416.314     -96.862     -95.571
  H     -413.045     -98.498     -96.432
  H     -415.648     -98.142     -97.386
  H     -410.702     -99.379     -91.315
  H     -415.513     -95.722     -97.166
  H     -410.261     -99.174     -92.972
  H     -412.806     -95.956     -98.631
  H     -412.282     -93.974     -97.068
  H     -413.371     -93.665     -98.447
  P     -416.861     -95.965     -99.609
  C     -416.016     -96.117    -102.046
  O     -416.924     -96.614    -101.075
  O     -417.584     -94.664     -99.465
  O     -417.456     -97.135     -98.689
  H     -417.752     -96.820     -97.800
  H     -416.165     -96.633    -102.971
  H     -415.013     -96.272    -101.709
  H     -416.186     -95.070    -102.190

 6  7  8  9  10  11  12  13  14  15  26  29  33  34 0
 6-311+G(2d,p)
 ****
 36  38  39  40  41 0
 6-311+G(2d,p)
 ****
 1  2  3  4  5  16  17  18  19  20  21  22  23  24  25 0
 3-21G
 ****
 27  28  30  31  32  35  37  42  43  44  45  46  47 0
 3-21G
 ****
 48  49 0
 3-21G
 ****


