%nproc=1
%NoSave
%Mem=1900MB
#P OB98/GEN NMR

erre ene a

0 1
  C       79.891     -29.597      77.878
  O       78.732     -29.847      77.096
  P       78.846     -30.956      75.938
  C       80.290     -31.210      73.798
  O       79.991     -30.425      74.947
  C       80.742     -30.321      72.647
  O       82.044     -29.777      72.932
  C       80.885     -31.038      71.312
  O       79.635     -31.195      70.658
  C       81.782     -30.071      70.555
  O       80.989     -29.002      70.007
  C       82.705     -29.539      71.664
  N       87.210     -29.928      69.385
  C       86.120     -29.142      69.064
  N       86.262     -28.324      67.999
  N       84.994     -29.159      69.726
  C       85.010     -29.995      70.789
  C       86.026     -30.827      71.207
  C       87.250     -30.836      70.435
  O       88.223     -31.558      70.634
  N       85.673     -31.515      72.340
  C       84.465     -31.076      72.628
  N       84.006     -30.175      71.699
  O       77.502     -30.739      75.097
  O       78.984     -32.360      76.417
  H       80.444     -29.385      69.294
  H       77.262     -31.567      74.637
  H       88.058     -29.863      68.852
  H       83.890     -31.383      73.491
  H       82.849     -28.456      71.576
  H       82.306     -30.541      69.716
  H       87.144     -28.171      67.535
  H       81.398     -31.998      71.433
  H       85.488     -27.714      67.772
  H       80.036     -29.485      72.562
  H       79.393     -31.759      73.493
  H       81.071     -31.932      74.057
  P       79.503     -32.441      69.652
  C       81.160     -33.468      67.935
  O       80.766     -32.328      68.674
  O       78.261     -32.037      68.729
  O       79.304     -33.756      70.326
  H       77.831     -32.837      68.372
  H       80.295     -34.055      67.614
  H       81.815     -34.091      68.550
  H       81.709     -33.142      67.049
  H       79.675     -28.842      78.605
  H       80.685     -29.263      77.243
  H       80.187     -30.497      78.375

 3  4  5  6  7  8  9  10  11  12  23  26  30  31  33  0
 6-311+G(2d,p)
 ****
 35  36  37  38 0
 6-311+G(2d,p)
 ****
 1  2  13  14  15  16  17  18  19  20  21  22  24  25  27  28  29 0
 3-21G
 ****
 32  34  39  40  41  42  43  44  45  46  47  48  49 0
 3-21G
 ****


