%nproc=1
%NoSave
%Mem=1900MB
#P OB98/GEN NMR

erre ene a

0 1
  C      107.864    -147.446      26.515
  O      108.915    -146.991      27.373
  P      109.592    -145.577      27.024
  C      109.878    -144.769      29.493
  O      110.498    -145.198      28.294
  C      110.879    -144.764      30.654
  O      111.110    -146.131      31.111
  C      112.242    -144.151      30.311
  O      112.684    -143.444      31.478
  C      113.115    -145.369      30.071
  O      114.495    -145.075      30.228
  C      112.537    -146.338      31.108
  N      112.876    -147.731      30.831
  C      113.682    -148.380      31.759
  O      114.170    -147.810      32.733
  N      113.950    -149.697      31.502
  C      113.564    -150.390      30.391
  O      113.833    -151.571      30.211
  C      112.810    -149.619      29.390
  C      112.509    -148.346      29.653
  O      108.338    -144.593      27.121
  O      110.299    -145.579      25.709
  H      107.714    -144.829      27.829
  H      114.686    -144.935      31.178
  H      114.507    -150.195      32.179
  H      112.536    -150.118      28.469
  H      111.975    -147.745      28.929
  H      112.904    -146.087      32.112
  H      112.954    -145.749      29.057
  H      112.199    -143.469      29.458
  H      110.425    -144.217      31.489
  H      109.051    -145.441      29.744
  H      109.445    -143.775      29.339
  P      113.618    -142.148      31.275
  C      112.367    -140.683      33.047
  O      113.562    -141.309      32.637
  O      112.691    -141.289      30.287
  O      114.969    -142.425      30.704
  H      111.766    -141.240      30.579
  H      112.472    -140.376      34.090
  H      111.517    -141.365      32.970
  H      112.184    -139.795      32.436
  H      107.506    -148.393      26.861
  H      108.237    -147.548      25.517
  H      107.063    -146.737      26.526

 3  4  5  6  7  8  9  10  11  12  13  24  28  29  30  31  32 0
 6-311+G(2d,p)
 ****
 33  34 0
 6-311+G(2d,p)
 ****
 1  2  14  15  16  17  18  19  20  21  22  23  25  26  27 0
 3-21G
 ****
 35  36  37  38  39  40  41  42  43  44  45 0
 3-21G
 ****


