%nproc=1
%NoSave
%Mem=1900MB
#P OB98/GEN NMR

erre ene a

0 1
  C      300.750     -17.344    -314.185
  O      300.319     -18.667    -314.472
  P      298.752     -18.898    -314.734
  C      299.293     -21.231    -315.748
  O      298.551     -20.489    -314.779
  C      299.269     -22.720    -315.412
  O      300.095     -22.987    -314.264
  C      297.892     -23.270    -315.070
  O      297.125     -23.567    -316.222
  C      298.267     -24.550    -314.336
  O      298.612     -25.573    -315.284
  C      299.513     -24.116    -313.556
  N      298.409     -25.842    -308.872
  C      298.567     -26.481    -310.048
  N      298.851     -25.949    -311.258
  C      298.929     -24.606    -311.178
  C      298.752     -23.815    -310.056
  C      298.495     -24.487    -308.847
  N      298.355     -23.840    -307.639
  N      298.907     -22.484    -310.363
  C      299.186     -22.468    -311.651
  N      299.221     -23.728    -312.187
  O      298.574     -18.463    -316.263
  O      297.842     -18.148    -313.826
  H      298.897     -26.353    -314.771
  H      297.643     -18.211    -316.434
  H      298.460     -27.559    -310.021
  H      299.373     -21.575    -312.236
  H      300.277     -24.901    -313.517
  H      297.454     -24.941    -313.721
  H      297.357     -22.600    -314.380
  H      299.694     -23.262    -316.269
  H      300.328     -20.880    -315.745
  H      298.355     -24.398    -306.805
  H      298.618     -22.862    -307.596
  H      298.863     -21.054    -316.736
  P      295.568     -23.897    -315.997
  C      295.252     -25.063    -318.292
  O      295.275     -25.192    -316.883
  O      294.829     -22.710    -316.780
  O      295.162     -23.963    -314.561
  H      293.945     -22.552    -316.405
  H      295.352     -26.061    -318.738
  H      296.079     -24.440    -318.648
  H      294.305     -24.627    -318.613
  H      301.809     -17.339    -314.034
  H      300.262     -16.994    -313.300
  H      300.504     -16.703    -315.005

 3  4  5  6  7  8  9  10  11  12  22  25  29  30  31  32 0
 6-311+G(2d,p)
 ****
 33  36  37 0
 6-311+G(2d,p)
 ****
 1  2  13  14  15  16  17  18  19  20  21  23  24  26 0
 3-21G
 ****
 27  28  34  35  38  39  40  41  42  43  44  45  46  47  48 0
 3-21G
 ****


