%nproc=1
%NoSave
%Mem=1900MB
#P OB98/GEN NMR

erre ene a

0 1
  C     -256.527     386.128    -234.731
  O     -255.572     385.951    -235.780
  P     -255.972     386.521    -237.226
  C     -255.160     384.482    -238.613
  O     -254.992     385.860    -238.311
  C     -254.202     384.072    -239.732
  O     -254.382     384.881    -240.919
  C     -252.733     384.231    -239.359
  O     -252.314     383.201    -238.482
  C     -252.081     384.192    -240.737
  O     -251.967     382.835    -241.202
  C     -253.104     384.949    -241.599
  N     -250.411     388.167    -244.525
  C     -250.559     386.827    -244.560
  N     -251.295     386.044    -243.740
  C     -251.931     386.784    -242.817
  C     -251.880     388.158    -242.661
  C     -251.071     388.866    -243.569
  N     -250.914     390.232    -243.525
  N     -252.665     388.558    -241.597
  C     -253.161     387.438    -241.106
  N     -252.754     386.342    -241.817
  O     -255.502     388.047    -237.162
  O     -257.429     386.403    -237.530
  H     -252.854     382.430    -241.127
  H     -256.276     388.637    -237.115
  H     -250.015     386.313    -245.344
  H     -253.813     387.375    -240.244
  H     -253.238     384.493    -242.586
  H     -251.077     384.627    -240.752
  H     -252.564     385.209    -238.891
  H     -254.407     383.025    -239.992
  H     -256.189     384.284    -238.922
  H     -250.257     390.653    -244.161
  H     -251.329     390.751    -242.764
  H     -254.982     383.898    -237.708
  P     -252.208     383.547    -236.920
  C     -250.037     382.464    -236.065
  O     -251.420     382.284    -236.305
  O     -253.705     383.305    -236.427
  O     -251.624     384.886    -236.611
  H     -254.071     382.473    -236.782
  H     -249.640     381.548    -235.623
  H     -249.879     383.298    -235.372
  H     -249.520     382.655    -237.006
  H     -256.143     385.708    -233.825
  H     -257.440     385.636    -234.994
  H     -256.712     387.172    -234.590

 3  4  5  6  7  8  9  10  11  12  22  25  29  30  31  32 0
 6-311+G(2d,p)
 ****
 33  36  37 0
 6-311+G(2d,p)
 ****
 1  2  13  14  15  16  17  18  19  20  21  23  24  26 0
 3-21G
 ****
 27  28  34  35  38  39  40  41  42  43  44  45  46  47  48 0
 3-21G
 ****


