%nproc=1
%NoSave
%Mem=1900MB
#P OB98/GEN NMR

erre ene a

0 1
  C      182.942     101.249     -72.578
  O      183.741     102.402     -72.404
  H      182.085     101.313     -71.901
  H      183.516     100.352     -72.332
  H      182.571     101.184     -73.605
  P      185.017     102.614     -73.352
  C      186.476     101.423     -71.600
  O      186.076     101.469     -72.963
  C      187.743     100.579     -71.441
  O      187.377      99.178     -71.520
  C      188.806     100.851     -72.512
  O      190.095     100.779     -71.906
  C      188.631      99.695     -73.483
  O      189.835      99.401     -74.196
  C      188.185      98.570     -72.546
  N      188.574      94.380     -75.350
  C      189.550      95.121     -74.714
  N      190.831      94.703     -74.866
  N      189.299      96.184     -73.996
  C      187.981      96.481     -73.918
  C      186.919      95.834     -74.504
  C      187.209      94.658     -75.310
  O      186.388      93.971     -75.907
  N      185.731      96.455     -74.210
  C      186.073      97.481     -73.459
  N      187.426      97.550     -73.258
  O      185.583     103.999     -73.371
  O      184.503     102.162     -74.798
  H      190.065     100.203     -74.713
  H      184.278     102.939     -75.342
  H      188.826      93.577     -75.901
  H      185.384      98.210     -73.038
  H      189.035      98.061     -72.072
  H      187.850      99.936     -74.211
  H      191.094      93.882     -75.389
  H      188.675     101.823     -73.002
  H      191.556      95.216     -74.389
  H      188.148     100.747     -70.438
  H      185.661     100.983     -71.018
  H      186.659     102.444     -71.241
  P      190.984     102.111     -71.818
  C      192.215     101.750     -74.055
  O      191.332     102.585     -73.313
  O      192.145     102.053     -70.883
  O      189.912     103.214     -71.340
  H      190.379     103.896     -70.816
  H      192.368     102.168     -75.028
  H      191.787     100.774     -74.150
  H      193.153     101.680     -73.545

 6  7  8  9  10  11  12  13  14  15  26  29  33  34 0
 6-311+G(2d,p)
 ****
 36  38  39  40  41 0
 6-311+G(2d,p)
 ****
 1  2  3  4  5  16  17  18  19  20  21  22  23  24  25 0
 3-21G
 ****
 27  28  30  31  32  35  37  42  43  44  45  46  47 0
 3-21G
 ****
 48  49 0
 3-21G
 ****


