%nproc=1
%NoSave
%Mem=1900MB
#P OB98/GEN NMR

erre ene a

0 1
  C     -122.009     183.897     136.520
  O     -122.292     183.906     135.118
  P     -122.669     182.526     134.388
  C     -125.227     182.336     134.207
  O     -124.027     182.735     133.556
  C     -126.371     183.334     133.986
  O     -126.220     184.497     134.846
  C     -126.495     183.849     132.545
  O     -127.893     184.020     132.275
  C     -125.793     185.193     132.621
  O     -126.126     186.044     131.533
  C     -126.254     185.666     134.004
  N     -125.425     186.738     134.534
  C     -125.907     188.041     134.410
  O     -126.942     188.258     133.777
  N     -125.187     189.068     134.976
  C     -124.019     188.824     135.484
  N     -123.344     189.860     136.054
  C     -123.395     187.485     135.471
  C     -124.158     186.496     135.008
  O     -122.646     181.313     135.263
  O     -121.559     182.421     133.232
  H     -127.101     186.114     131.466
  H     -121.331     181.477     133.101
  H     -122.388     187.345     135.831
  H     -123.798     185.480     134.961
  H     -127.297     186.015     133.970
  H     -124.706     185.043     132.610
  H     -126.064     183.168     131.802
  H     -127.312     182.840     134.276
  H     -123.773     190.778     136.035
  H     -125.036     182.242     135.284
  H     -122.450     189.741     136.518
  H     -125.508     181.333     133.861
  P     -128.455     183.624     130.823
  C     -128.133     181.043     130.769
  O     -129.028     182.127     130.911
  O     -127.095     183.410     129.994
  O     -129.315     184.644     130.147
  H     -127.280     183.553     129.042
  H     -128.628     180.134     131.131
  H     -127.223     181.195     131.356
  H     -127.875     180.908     129.712
  H     -121.779     184.890     136.844
  H     -121.173     183.257     136.711
  H     -122.863     183.537     137.054

 3  4  5  6  7  8  9  10  11  12  13  23  27  28  29  30  32 0
 6-311+G(2d,p)
 ****
 34  35 0
 6-311+G(2d,p)
 ****
 1  2  14  15  16  17  18  19  20  21  22  24  25  26 0
 3-21G
 ****
 31  33  36  37  38  39  40  41  42  43  44  45  46 0
 3-21G
 ****


