%nproc=1
%NoSave
%Mem=1900MB
#P OB98/GEN NMR

erre ene a

0 1
  C      -21.860       1.805    -162.586
  O      -20.515       1.879    -163.012
  H      -22.035       0.820    -162.144
  H      -22.535       1.934    -163.436
  H      -22.060       2.573    -161.834
  P      -20.086       3.219    -163.789
  C      -20.648       3.913    -166.241
  O      -21.067       3.244    -165.062
  C      -21.480       3.436    -167.427
  O      -21.027       2.140    -167.877
  C      -22.962       3.264    -167.118
  O      -23.672       4.491    -167.107
  C      -23.382       2.380    -168.278
  O      -23.486       3.171    -169.475
  C      -22.185       1.405    -168.359
  N      -22.382       0.185    -167.574
  C      -22.336      -1.025    -168.275
  O      -22.148      -1.040    -169.490
  N      -22.537      -2.197    -167.585
  C      -22.755      -2.166    -166.306
  N      -22.961      -3.354    -165.677
  C      -22.795      -0.914    -165.528
  C      -22.605       0.208    -166.216
  O      -18.676       2.840    -164.445
  O      -20.072       4.470    -162.978
  H      -22.644       3.653    -169.569
  H      -18.385       3.563    -165.052
  H      -22.992      -0.938    -164.466
  H      -22.623       1.168    -165.709
  H      -21.981       1.122    -169.398
  H      -24.350       1.900    -168.123
  H      -23.120       2.714    -166.184
  H      -21.325       4.141    -168.254
  H      -22.990      -4.188    -166.246
  H      -19.589       3.691    -166.407
  H      -23.315      -3.414    -164.730
  H      -20.771       4.994    -166.123
  P      -25.007       4.572    -166.218
  C      -27.343       3.439    -166.285
  O      -26.121       3.692    -166.965
  O      -25.507       6.074    -166.454
  O      -24.818       4.267    -164.765
  H      -25.869       6.459    -165.634
  H      -27.980       2.844    -166.906
  H      -27.827       4.367    -166.064
  H      -27.142       2.915    -165.374

 6  7  8  9  10  11  12  13  14  15  16  26  30  31  32  33  35 0
 6-311+G(2d,p)
 ****
 37  38 0
 6-311+G(2d,p)
 ****
 1  2  3  4  5  17  18  19  20  21  22  23  24  25 0
 3-21G
 ****
 27  28  29  34  36  39  40  41  42  43  44  45  46 0
 3-21G
 ****


