%nproc=1
%NoSave
%Mem=1900MB
#P OB98/GEN NMR

erre ene a

0 1
  C       22.790     -74.143      29.208
  O       24.073     -74.450      29.716
  H       22.172     -75.044      29.174
  H       22.315     -73.415      29.870
  H       22.872     -73.709      28.207
  P       24.952     -75.487      28.863
  C       25.243     -77.233      30.760
  O       24.672     -76.935      29.495
  C       24.546     -78.441      31.380
  O       23.115     -78.289      31.290
  C       24.861     -79.773      30.707
  O       26.110     -80.295      31.130
  C       23.703     -80.623      31.208
  O       23.967     -81.057      32.556
  C       22.540     -79.619      31.197
  N       18.839     -82.223      28.811
  C       19.385     -82.353      30.039
  N       20.353     -81.608      30.612
  C       20.747     -80.627      29.784
  C       20.270     -80.354      28.514
  C       19.271     -81.209      28.020
  N       18.767     -81.107      26.732
  N       20.932     -79.273      27.964
  C       21.805     -78.914      28.881
  N       21.727     -79.698      30.000
  O       26.449     -75.149      29.329
  O       24.797     -75.385      27.383
  H       24.472     -81.889      32.488
  H       26.860     -74.552      28.677
  H       18.996     -83.166      30.642
  H       22.512     -78.103      28.777
  H       21.877     -79.745      32.060
  H       23.536     -81.520      30.607
  H       24.802     -79.697      29.615
  H       24.809     -78.471      32.444
  H       25.130     -76.370      31.424
  H       18.446     -81.993      26.352
  H       19.311     -80.515      26.116
  H       26.309     -77.439      30.623
  P       27.060     -80.951      30.015
  C       26.264     -83.382      30.397
  O       26.314     -82.278      29.504
  O       28.286     -81.512      30.879
  O       27.530     -80.020      28.951
  H       29.124     -81.138      30.544
  H       25.742     -84.193      29.933
  H       25.752     -83.094      31.292
  H       27.260     -83.690      30.639

 6  7  8  9  10  11  12  13  14  15  25  28  32  33  34  35 0
 6-311+G(2d,p)
 ****
 36  39  40 0
 6-311+G(2d,p)
 ****
 1  2  3  4  5  16  17  18  19  20  21  22  23  24 0
 3-21G
 ****
 26  27  29  30  31  37  38  41  42  43  44  45  46  47  48 0
 3-21G
 ****


