%nproc=1
%NoSave
%Mem=1900MB
#P OB98/GEN NMR

erre ene a

0 1
  C      270.933    -521.824    -342.062
  O      270.658    -520.667    -342.863
  P      271.644    -519.408    -342.740
  C      272.355    -517.438    -344.291
  O      271.398    -518.453    -344.006
  C      272.032    -516.762    -345.630
  O      272.309    -517.636    -346.755
  C      270.559    -516.364    -345.769
  O      270.297    -515.118    -345.130
  C      270.434    -516.208    -347.276
  O      270.974    -514.931    -347.686
  C      271.329    -517.351    -347.794
  N      268.437    -519.661    -351.246
  C      269.051    -518.422    -351.281
  N      268.873    -517.692    -352.407
  N      269.765    -517.938    -350.305
  C      269.879    -518.785    -349.243
  C      269.319    -520.035    -349.096
  C      268.509    -520.552    -350.173
  O      267.931    -521.632    -350.201
  N      269.647    -520.584    -347.882
  C      270.421    -519.680    -347.316
  N      270.583    -518.561    -348.090
  O      273.082    -520.050    -343.049
  O      271.613    -518.733    -341.407
  H      270.726    -514.817    -348.624
  H      273.780    -519.531    -342.601
  H      267.890    -519.977    -352.022
  H      270.882    -519.783    -346.333
  H      271.886    -517.081    -348.691
  H      269.396    -516.244    -347.612
  H      268.370    -518.020    -353.218
  H      269.898    -517.160    -345.409
  H      269.340    -516.797    -352.461
  H      272.651    -515.864    -345.723
  H      273.359    -517.868    -344.334
  H      272.367    -516.723    -343.472
  P      269.419    -515.131    -343.785
  C      268.624    -513.261    -342.175
  O      269.570    -513.676    -343.141
  O      270.281    -516.079    -342.814
  O      268.029    -515.637    -343.951
  H      269.697    -516.562    -342.208
  H      268.976    -512.317    -341.727
  H      268.526    -513.997    -341.379
  H      267.656    -513.081    -342.646
  H      270.194    -522.574    -342.253
  H      270.909    -521.555    -341.027
  H      271.901    -522.207    -342.309

 3  4  5  6  7  8  9  10  11  12  23  26  30  31 0
 6-311+G(2d,p)
 ****
 33  35  36  37  38 0
 6-311+G(2d,p)
 ****
 1  2  13  14  15  16  17  18  19  20  21  22  24  25 0
 3-21G
 ****
 27  28  29  32  34  39  40  41  42  43  44  45  46  47  48  49 0
 3-21G
 ****


