%nproc=1
%NoSave
%Mem=1900MB
#P OB98/GEN NMR

erre ene a

0 1
  C      156.011    -369.935     -30.163
  O      155.313    -370.963     -29.490
  P      154.267    -370.599     -28.329
  C      154.602    -369.974     -25.825
  O      155.101    -369.915     -27.145
  C      155.303    -368.951     -24.925
  O      155.128    -367.639     -25.513
  C      154.736    -368.847     -23.510
  O      155.702    -368.205     -22.676
  C      153.554    -367.931     -23.719
  O      153.124    -367.318     -22.501
  C      154.067    -366.948     -24.809
  N      152.997    -366.559     -25.739
  C      152.263    -365.430     -25.410
  O      152.525    -364.718     -24.438
  N      151.164    -365.181     -26.186
  C      150.719    -365.972     -27.201
  O      149.592    -365.915     -27.672
  C      151.663    -367.016     -27.647
  C      152.728    -367.274     -26.891
  O      153.871    -372.035     -27.744
  O      153.070    -369.837     -28.787
  H      152.724    -368.038     -21.953
  H      153.042    -372.349     -28.146
  H      150.553    -364.445     -25.857
  H      151.419    -367.574     -28.547
  H      153.418    -368.074     -27.168
  H      154.482    -366.040     -24.358
  H      152.708    -368.513     -24.106
  H      154.437    -369.809     -23.075
  H      156.375    -369.166     -24.894
  H      154.734    -370.990     -25.435
  H      153.523    -369.779     -25.820
  P      155.852    -368.723     -21.164
  C      154.250    -368.672     -19.159
  O      154.675    -368.012     -20.328
  O      157.213    -368.626     -20.570
  O      155.350    -370.244     -21.251
  H      155.666    -370.744     -20.474
  H      153.882    -367.926     -18.444
  H      155.065    -369.242     -18.692
  H      153.430    -369.356     -19.402
  H      156.658    -370.366     -30.898
  H      156.592    -369.378     -29.458
  H      155.311    -369.283     -30.642

 3  4  5  6  7  8  9  10  11  12  13  23  28  29  30  31  32 0
 6-311+G(2d,p)
 ****
 33  34 0
 6-311+G(2d,p)
 ****
 1  2  14  15  16  17  18  19  20  21  22  24  25  26  27 0
 3-21G
 ****
 35  36  37  38  39  40  41  42  43  44  45 0
 3-21G
 ****


