%nproc=1
%NoSave
%Mem=1900MB
#P OB98/GEN NMR

erre ene a

0 1
  C       46.238    -196.747     -23.917
  O       47.642    -196.937     -23.758
  P       48.618    -197.546     -24.863
  C       50.390    -195.638     -25.226
  O       50.070    -196.907     -24.670
  C       51.794    -195.184     -24.796
  O       51.830    -195.088     -23.340
  C       52.885    -196.182     -25.209
  O       54.063    -195.559     -25.711
  C       53.034    -197.052     -23.973
  O       54.263    -197.762     -23.925
  C       52.791    -196.051     -22.847
  N       53.804    -199.234     -18.985
  C       54.529    -198.995     -20.136
  N       55.666    -199.705     -20.294
  N       54.164    -198.147     -21.060
  C       52.970    -197.562     -20.818
  C       52.152    -197.727     -19.722
  C       52.591    -198.630     -18.681
  O       51.997    -198.862     -17.630
  N       51.022    -196.954     -19.822
  C       51.146    -196.340     -20.982
  N       52.319    -196.670     -21.621
  O       48.081    -197.590     -26.254
  O       48.834    -199.072     -24.379
  H       54.986    -197.109     -23.975
  H       48.955    -199.602     -25.193
  H       54.145    -199.880     -18.295
  H       50.430    -195.641     -21.398
  H       53.699    -195.507     -22.576
  H       52.232    -197.802     -23.999
  H       55.941    -200.460     -19.684
  H       52.548    -196.802     -26.048
  H       56.071    -199.692     -21.231
  H       51.983    -194.187     -25.207
  H       49.639    -194.941     -24.837
  H       50.294    -195.655     -26.313
  P       54.981    -196.003     -26.942
  C       53.444    -194.847     -28.640
  O       54.764    -194.964     -28.141
  O       54.304    -197.341     -27.501
  O       56.412    -196.255     -26.593
  H       54.932    -198.087     -27.424
  H       53.478    -194.328     -29.602
  H       52.839    -194.263     -27.943
  H       52.995    -195.834     -28.784
  H       45.832    -196.323     -23.022
  H       45.770    -197.690     -24.109
  H       46.058    -196.086     -24.739

 3  4  5  6  7  8  9  10  11  12  23  26  30  31 0
 6-311+G(2d,p)
 ****
 33  35  36  37  38 0
 6-311+G(2d,p)
 ****
 1  2  13  14  15  16  17  18  19  20  21  22  24  25 0
 3-21G
 ****
 27  28  29  32  34  39  40  41  42  43  44  45  46  47  48  49 0
 3-21G
 ****


