%nproc=1
%NoSave
%Mem=1900MB
#P OB98/GEN NMR

erre ene a

0 1
  C      500.313    -347.011     117.621
  O      499.136    -346.230     117.826
  P      499.128    -345.112     118.979
  C      498.165    -346.596     120.851
  O      499.283    -345.841     120.403
  C      497.525    -346.000     122.108
  O      496.401    -346.813     122.550
  C      498.482    -345.859     123.301
  O      498.108    -344.663     124.003
  C      498.150    -347.083     124.130
  O      498.593    -346.966     125.478
  C      496.632    -347.150     123.935
  N      496.077    -348.454     124.271
  C      496.031    -348.800     125.627
  O      496.540    -348.055     126.469
  N      495.437    -349.984     125.980
  C      495.072    -350.813     125.058
  N      494.467    -351.969     125.448
  C      495.265    -350.561     123.616
  C      495.749    -349.365     123.303
  O      498.017    -344.121     118.901
  O      500.551    -344.402     118.788
  H      499.562    -346.838     125.481
  H      500.458    -343.451     119.004
  H      495.024    -351.320     122.889
  H      495.927    -349.081     122.274
  H      496.121    -346.384     124.543
  H      498.634    -347.966     123.691
  H      499.533    -345.790     123.011
  H      497.126    -345.011     121.843
  H      494.362    -352.144     126.441
  H      498.493    -347.620     121.064
  H      494.104    -352.650     124.783
  H      497.443    -346.676     120.027
  P      498.834    -343.283     123.624
  C      501.086    -343.812     124.814
  O      500.422    -343.545     123.598
  O      498.664    -342.435     124.978
  O      498.259    -342.521     122.474
  H      498.703    -341.488     124.760
  H      502.070    -344.240     124.594
  H      500.527    -344.514     125.437
  H      501.229    -342.871     125.370
  H      500.148    -347.702     116.821
  H      500.544    -347.550     118.516
  H      501.130    -346.366     117.372

 3  4  5  6  7  8  9  10  11  12  13  23  27  28  29  30  32 0
 6-311+G(2d,p)
 ****
 34  35 0
 6-311+G(2d,p)
 ****
 1  2  14  15  16  17  18  19  20  21  22  24  25  26 0
 3-21G
 ****
 31  33  36  37  38  39  40  41  42  43  44  45  46 0
 3-21G
 ****


