%nproc=1
%NoSave
%Mem=1900MB
#P OB98/GEN NMR

erre ene a

0 1
  C     -899.250     121.698     392.480
  O     -899.490     122.954     391.868
  H     -900.000     121.556     393.266
  H     -898.260     121.685     392.936
  H     -899.350     120.884     391.758
  P     -898.730     123.300     390.501
  C     -896.360     123.605     391.461
  O     -897.220     122.791     390.674
  C     -895.020     122.895     391.685
  O     -894.380     122.682     390.379
  C     -894.020     123.686     392.574
  O     -893.250     122.753     393.354
  C     -893.160     124.360     391.529
  O     -891.930     124.775     392.045
  C     -893.060     123.240     390.481
  N     -892.570     123.756     389.201
  C     -891.190     123.703     388.985
  O     -890.380     123.270     389.811
  N     -890.760     124.238     387.801
  C     -891.530     124.916     386.888
  O     -891.050     125.442     385.900
  C     -892.960     124.984     387.210
  C     -893.410     124.408     388.316
  O     -898.860     124.715     390.015
  O     -899.320     122.244     389.437
  H     -891.540     124.083     392.628
  H     -899.180     122.563     388.526
  H     -889.750     124.205     387.624
  H     -893.610     125.508     386.510
  H     -894.460     124.437     388.587
  H     -892.380     122.438     390.823
  H     -893.660     125.237     391.116
  H     -894.530     124.396     393.233
  H     -895.210     121.901     392.104
  H     -896.840     123.799     392.430
  H     -896.190     124.564     390.947
  P     -893.540     122.518     394.911
  C     -892.480     124.497     396.174
  O     -893.710     123.929     395.679
  O     -892.580     121.575     395.573
  O     -895.030     121.895     394.949
  H     -895.030     121.131     395.556
  H     -892.688     125.425     396.665
  H     -891.812     124.668     395.356
  H     -892.028     123.819     396.868

 6  7  8  9  10  11  12  13  14  15  16  26  31  32  33  34  35 0
 6-311+G(2d,p)
 ****
 36  37 0
 6-311+G(2d,p)
 ****
 1  2  3  4  5  17  18  19  20  21  22  23  24  25 0
 3-21G
 ****
 27  28  29  30  38  39  40  41  42  43  44  45 0
 3-21G
 ****


