%nproc=1
%NoSave
%Mem=1900MB
#P OB98/GEN NMR

erre ene a

0 1
  C     -118.015    -306.029    -438.139
  O     -116.967    -306.419    -439.012
  P     -116.093    -305.251    -439.695
  C     -114.031    -305.672    -438.161
  O     -115.034    -304.758    -438.590
  C     -112.649    -305.239    -438.648
  O     -112.537    -303.790    -438.510
  C     -111.476    -305.866    -437.881
  O     -110.416    -306.059    -438.824
  C     -111.129    -304.774    -436.881
  O     -109.846    -304.914    -436.291
  C     -111.333    -303.536    -437.750
  N     -108.793    -299.977    -435.090
  C     -108.367    -301.041    -435.810
  N     -109.101    -301.940    -436.497
  C     -110.412    -301.654    -436.402
  C     -110.999    -300.620    -435.693
  C     -110.128    -299.752    -435.008
  N     -110.567    -298.672    -434.268
  N     -112.372    -300.661    -435.808
  C     -112.614    -301.706    -436.573
  N     -111.462    -302.322    -436.973
  O     -117.124    -304.037    -439.786
  O     -115.509    -305.599    -441.030
  H     -109.801    -305.755    -435.790
  H     -117.009    -303.538    -440.619
  H     -107.291    -301.189    -435.838
  H     -113.598    -302.061    -436.854
  H     -110.510    -303.393    -438.462
  H     -111.858    -304.799    -436.063
  H     -111.725    -306.830    -437.420
  H     -112.571    -305.470    -439.721
  H     -114.248    -306.665    -438.575
  H     -109.887    -298.236    -433.662
  H     -111.556    -298.636    -434.049
  H     -114.060    -305.753    -437.068
  P     -109.210    -307.048    -438.451
  C     -110.355    -308.700    -440.056
  O     -109.799    -308.511    -438.769
  O     -109.274    -307.012    -436.852
  O     -107.880    -306.703    -439.028
  H     -110.177    -307.183    -436.525
  H     -110.622    -309.757    -440.168
  H     -109.628    -308.436    -440.827
  H     -111.257    -308.096    -440.163
  H     -118.507    -306.901    -437.761
  H     -118.719    -305.426    -438.674
  H     -117.610    -305.466    -437.324

 3  4  5  6  7  8  9  10  11  12  22  25  29  30  31  32 0
 6-311+G(2d,p)
 ****
 33  36  37 0
 6-311+G(2d,p)
 ****
 1  2  13  14  15  16  17  18  19  20  21  23  24  26 0
 3-21G
 ****
 27  28  34  35  38  39  40  41  42  43  44  45  46  47  48 0
 3-21G
 ****


