%nproc=1
%NoSave
%Mem=1900MB
#P OB98/GEN NMR

erre ene a

0 1
  C      650.522    -327.622     527.430
  O      649.714    -328.782     527.352
  P      650.029    -329.919     526.257
  C      648.466    -329.966     524.214
  O      649.598    -329.352     524.814
  C      648.553    -329.870     522.692
  O      648.530    -328.489     522.270
  C      649.840    -330.448     522.095
  O      649.856    -331.868     522.135
  C      649.807    -329.827     520.695
  O      648.944    -330.567     519.836
  C      649.219    -328.427     520.991
  N      650.234    -327.396     520.984
  C      650.853    -327.145     519.746
  O      650.586    -327.846     518.764
  N      651.760    -326.115     519.660
  C      652.116    -325.471     520.739
  N      652.974    -324.428     520.581
  C      651.610    -325.817     522.076
  C      650.668    -326.773     522.136
  O      649.496    -331.273     526.589
  O      651.620    -329.931     526.173
  H      651.938    -330.850     526.255
  H      649.312    -331.469     519.759
  H      651.991    -325.297     522.949
  H      650.221    -327.066     523.072
  H      648.453    -328.199     520.247
  H      650.809    -329.827     520.244
  H      650.698    -330.067     522.643
  H      647.681    -330.385     522.266
  H      653.272    -324.208     519.641
  H      647.558    -329.470     524.568
  H      653.062    -323.683     521.262
  H      648.417    -331.024     524.524
  P      651.121    -332.567     522.818
  C      652.318    -332.019     520.579
  O      652.415    -332.103     522.001
  O      650.948    -334.109     522.428
  O      651.189    -332.371     524.311
  H      651.244    -334.664     523.177
  H      653.116    -331.377     520.207
  H      651.363    -331.579     520.277
  H      652.418    -333.025     520.155
  H      650.160    -326.987     528.212
  H      650.483    -327.097     526.498
  H      651.533    -327.905     527.639

 3  4  5  6  7  8  9  10  11  12  13  24  27  28  29  30  32 0
 6-311+G(2d,p)
 ****
 34  35 0
 6-311+G(2d,p)
 ****
 1  2  14  15  16  17  18  19  20  21  22  23  25  26 0
 3-21G
 ****
 31  33  36  37  38  39  40  41  42  43  44  45  46 0
 3-21G
 ****


