%nproc=1
%NoSave
%Mem=1900MB
#P OB98/GEN NMR

erre ene a

0 1
  C      472.613    -892.000    -538.984
  O      473.546    -893.070    -539.190
  P      473.353    -894.460    -538.413
  C      473.519    -896.170    -540.398
  O      472.696    -895.520    -539.413
  C      473.342    -895.500    -541.758
  O      473.790    -894.120    -541.723
  C      474.102    -896.150    -542.885
  O      473.497    -897.350    -543.330
  C      474.103    -895.030    -543.919
  O      472.874    -895.040    -544.694
  C      474.198    -893.780    -543.070
  N      475.561    -893.190    -543.068
  C      476.046    -892.820    -544.324
  O      475.453    -893.040    -545.393
  N      477.292    -892.260    -544.310
  C      478.096    -892.060    -543.227
  O      479.210    -891.560    -543.273
  C      477.514    -892.540    -541.929
  C      476.312    -893.070    -541.915
  O      472.127    -894.110    -537.435
  O      474.538    -894.930    -537.624
  H      472.955    -894.290    -545.341
  H      472.180    -894.670    -536.637
  H      477.668    -891.950    -545.204
  H      478.124    -892.430    -541.044
  H      475.883    -893.420    -540.987
  H      473.499    -893.020    -543.403
  H      474.921    -895.150    -544.649
  H      475.135    -896.330    -542.561
  H      472.250    -895.470    -541.976
  H      473.225    -897.210    -540.467
  H      474.556    -896.110    -540.062
  P      473.827    -898.700    -542.500
  C      471.487    -899.170    -541.431
  O      472.804    -898.690    -541.264
  O      475.241    -898.300    -541.858
  O      473.827    -899.910    -543.365
  H      475.313    -897.340    -541.668
  H      471.443    -900.000    -542.167
  H      470.840    -898.340    -541.746
  H      471.127    -899.540    -540.471
  H      472.898    -891.158    -539.580
  H      472.612    -891.722    -537.951
  H      471.633    -892.322    -539.268

 3  4  5  6  7  8  9  10  11  12  13  23  28  29  30  31  32 0
 6-311+G(2d,p)
 ****
 33  34 0
 6-311+G(2d,p)
 ****
 1  2  14  15  16  17  18  19  20  21  22  24  25  26 0
 3-21G
 ****
 27  35  36  37  38  39  40  41  42  43  44  45 0
 3-21G
 ****


