%nproc=1
%NoSave
%Mem=1900MB
#P OB98/GEN NMR

erre ene a

0 1
  C      294.308     741.685     128.143
  O      293.667     740.430     128.160
  H      294.400     742.047     129.171
  H      293.703     742.397     127.572
  H      295.308     741.622     127.705
  P      293.805     739.478     126.879
  C      295.774     738.046     127.742
  O      295.339     738.998     126.781
  C      296.027     736.675     127.110
  O      297.010     736.800     126.060
  C      296.567     735.655     128.113
  O      295.568     734.958     128.837
  C      297.345     734.707     127.203
  O      296.503     733.661     126.688
  C      297.827     735.616     126.067
  N      302.580     734.077     127.148
  C      301.390     733.405     127.345
  N      301.480     732.196     127.935
  N      300.225     733.897     127.008
  C      300.282     735.154     126.514
  C      301.408     735.930     126.289
  C      302.694     735.350     126.599
  O      303.782     735.893     126.429
  N      301.076     737.173     125.823
  C      299.760     737.184     125.846
  N      299.230     735.960     126.183
  O      293.685     740.491     125.643
  O      292.786     738.387     126.774
  H      296.980     733.232     125.943
  H      293.272     740.033     124.887
  H      303.449     733.642     127.396
  H      299.132     738.033     125.584
  H      297.695     735.141     125.086
  H      298.154     734.212     127.753
  H      302.342     731.809     128.291
  H      297.272     736.127     128.800
  H      300.617     731.759     128.278
  H      295.098     736.325     126.640
  H      294.986     737.975     128.493
  H      296.681     738.403     128.250
  P      295.950     734.032     130.078
  C      295.408     735.836     131.912
  O      296.345     734.971     131.307
  O      297.354     733.398     129.635
  O      294.943     732.983     130.443
  H      297.222     732.496     129.286
  H      295.879     736.370     132.711
  H      294.592     735.263     132.299
  H      295.043     736.531     131.185

 6  7  8  9  10  11  12  13  14  15  26  29  33  34 0
 6-311+G(2d,p)
 ****
 36  38  39  40  41 0
 6-311+G(2d,p)
 ****
 1  2  3  4  5  16  17  18  19  20  21  22  23  24  25 0
 3-21G
 ****
 27  28  30  31  32  35  37  42  43  44  45  46  47 0
 3-21G
 ****
 48  49 0
 3-21G
 ****


