%nproc=1
%NoSave
%Mem=1900MB
#P OB98/GEN NMR

erre ene a

0 1
  C     -196.043     -99.163      -0.260
  O     -197.077     -99.360       0.681
  H     -195.707     -98.126      -0.196
  H     -196.406     -99.352      -1.273
  H     -195.196     -99.819      -0.039
  P     -197.795    -100.792       0.750
  C     -199.905    -100.354      -0.670
  O     -198.621    -100.964      -0.616
  C     -200.591    -100.685      -2.002
  O     -199.890     -99.967      -3.048
  C     -200.547    -102.184      -2.330
  O     -201.832    -102.725      -2.630
  C     -199.465    -102.273      -3.399
  O     -199.596    -103.377      -4.272
  C     -199.533    -100.904      -4.083
  N     -198.285    -100.504      -4.731
  C     -198.008    -101.059      -5.977
  O     -198.734    -101.846      -6.579
  N     -196.824    -100.665      -6.550
  C     -195.913     -99.809      -6.004
  O     -194.870     -99.493      -6.568
  C     -196.249     -99.279      -4.675
  C     -197.401     -99.646      -4.107
  O     -198.579    -101.061       1.990
  O     -196.593    -101.837       0.576
  H     -199.545    -104.188      -3.722
  H     -196.392    -102.247       1.439
  H     -196.618    -101.047      -7.459
  H     -195.541     -98.608      -4.207
  H     -197.682     -99.273      -3.126
  H     -200.318    -100.891      -4.840
  H     -198.493    -102.374      -2.899
  H     -200.230    -102.764      -1.455
  H     -201.619    -100.306      -1.972
  H     -199.770     -99.274      -0.571
  H     -200.519    -100.716       0.162
  P     -202.914    -103.174      -1.549
  C     -202.791    -105.797      -1.691
  O     -202.498    -104.606      -0.973
  O     -204.343    -102.996      -1.942
  O     -202.633    -102.192      -0.298
  H     -203.497    -102.046       0.136
  H     -202.433    -106.642      -1.141
  H     -202.311    -105.764      -2.647
  H     -203.849    -105.881      -1.826

 6  7  8  9  10  11  12  13  14  15  16  26  31  32  33  34  35 0
 6-311+G(2d,p)
 ****
 36  37 0
 6-311+G(2d,p)
 ****
 1  2  3  4  5  17  18  19  20  21  22  23  24  25 0
 3-21G
 ****
 27  28  29  30  38  39  40  41  42  43  44  45 0
 3-21G
 ****


