%nproc=1
%NoSave
%Mem=1900MB
#P OB98/GEN NMR

erre ene a

0 1
  C     -639.180    -336.495     -29.382
  O     -638.970    -335.398     -30.248
  P     -639.825    -334.062     -29.985
  C     -640.262    -334.088     -32.572
  O     -640.766    -333.870     -31.264
  C     -641.279    -334.901     -33.397
  O     -641.498    -336.185     -32.779
  C     -642.662    -334.263     -33.504
  O     -642.671    -333.204     -34.456
  C     -643.507    -335.476     -33.888
  O     -643.381    -335.751     -35.304
  C     -642.845    -336.605     -33.070
  N     -643.578    -336.931     -31.851
  C     -644.352    -338.091     -31.890
  O     -644.428    -338.813     -32.877
  N     -645.064    -338.375     -30.743
  C     -645.112    -337.607     -29.619
  O     -645.788    -337.870     -28.640
  C     -644.308    -336.365     -29.656
  C     -643.578    -336.095     -30.738
  O     -638.692    -332.949     -30.135
  O     -640.522    -334.077     -28.656
  H     -637.974    -333.239     -30.730
  H     -643.901    -336.553     -35.476
  H     -645.603    -339.219     -30.742
  H     -644.321    -335.724     -28.783
  H     -642.990    -335.192     -30.786
  H     -642.761    -337.503     -33.680
  H     -644.570    -335.327     -33.683
  H     -642.972    -333.894     -32.523
  H     -640.840    -335.075     -34.389
  H     -639.322    -334.643     -32.511
  H     -640.073    -333.118     -33.048
  P     -643.036    -331.749     -33.874
  C     -644.971    -331.356     -35.581
  O     -644.584    -331.482     -34.234
  O     -642.223    -330.798     -34.907
  O     -642.668    -331.548     -32.441
  H     -642.299    -331.100     -35.816
  H     -646.049    -331.539     -35.641
  H     -644.451    -332.072     -36.231
  H     -644.773    -330.348     -35.936
  H     -638.548    -337.307     -29.675
  H     -640.204    -336.802     -29.437
  H     -638.948    -336.207     -28.378

 3  4  5  6  7  8  9  10  11  12  13  24  28  29  30  31  32 0
 6-311+G(2d,p)
 ****
 33  34 0
 6-311+G(2d,p)
 ****
 1  2  14  15  16  17  18  19  20  21  22  23  25  26  27 0
 3-21G
 ****
 35  36  37  38  39  40  41  42  43  44  45 0
 3-21G
 ****


