%nproc=1
%NoSave
%Mem=1900MB
#P OB98/GEN NMR

erre ene a

0 1
  C     -108.150     300.720    -279.849
  O     -108.579     299.880    -280.929
  P     -110.039     299.209    -281.004
  C     -110.596     300.096    -283.363
  O     -110.431     298.949    -282.540
  C     -110.317     299.783    -284.834
  O     -108.878     299.639    -285.055
  C     -110.987     298.498    -285.361
  O     -111.420     298.775    -286.693
  C     -109.831     297.506    -285.337
  O     -110.050     296.362    -286.141
  C     -108.697     298.419    -285.806
  N     -107.345     297.892    -285.621
  C     -106.621     297.539    -286.768
  O     -107.120     297.612    -287.895
  N     -105.335     297.081    -286.614
  C     -104.817     296.975    -285.433
  N     -103.532     296.525    -285.351
  C     -105.550     297.316    -284.198
  C     -106.793     297.765    -284.366
  O     -111.085     299.969    -280.247
  O     -109.865     297.740    -280.393
  H     -110.671     297.497    -279.896
  H     -110.120     296.651    -287.070
  H     -105.076     297.217    -283.232
  H     -107.389     298.064    -283.505
  H     -108.849     298.665    -286.865
  H     -109.681     297.167    -284.309
  H     -111.859     298.189    -284.768
  H     -110.636     300.646    -285.432
  H     -103.056     296.314    -286.225
  H     -109.899     300.867    -283.024
  H     -103.031     296.416    -284.479
  H     -111.619     300.476    -283.240
  P     -112.857     299.436    -286.944
  C     -111.914     301.544    -288.156
  O     -112.739     300.394    -288.228
  O     -112.945     300.499    -285.748
  O     -114.035     298.512    -286.898
  H     -113.882     300.674    -285.537
  H     -111.323     301.616    -289.073
  H     -111.237     301.523    -287.299
  H     -112.556     302.434    -288.078
  H     -107.145     301.043    -280.026
  H     -108.192     300.171    -278.932
  H     -108.793     301.573    -279.784

 3  4  5  6  7  8  9  10  11  12  13  24  27  28  29  30  32 0
 6-311+G(2d,p)
 ****
 34  35 0
 6-311+G(2d,p)
 ****
 1  2  14  15  16  17  18  19  20  21  22  23  25  26 0
 3-21G
 ****
 31  33  36  37  38  39  40  41  42  43  44  45  46 0
 3-21G
 ****


