%nproc=1
%NoSave
%Mem=1900MB
#P OB98/GEN NMR

erre ene a

0 1
  C      663.314    -747.541     165.044
  O      662.520    -748.717     165.215
  P      660.942    -748.512     165.323
  C      659.002    -750.215     164.974
  O      660.253    -749.942     165.588
  C      658.463    -751.571     165.455
  O      659.275    -752.673     164.958
  C      658.462    -751.719     166.971
  O      657.406    -750.982     167.549
  C      658.328    -753.224     167.099
  O      656.959    -753.642     166.914
  C      659.197    -753.743     165.932
  N      662.014    -757.538     167.917
  C      660.696    -757.417     167.639
  N      660.016    -756.384     167.118
  C      660.851    -755.354     166.856
  C      662.219    -755.311     167.086
  C      662.808    -756.460     167.647
  N      664.146    -756.549     167.933
  N      662.742    -754.094     166.686
  C      661.693    -753.407     166.248
  N      660.532    -754.141     166.325
  O      660.507    -748.159     163.824
  O      660.535    -747.433     166.296
  H      656.951    -754.630     167.008
  H      660.272    -747.206     163.760
  H      660.093    -758.304     167.874
  H      661.723    -752.389     165.885
  H      658.729    -754.594     165.417
  H      658.649    -753.609     168.083
  H      659.424    -751.387     167.389
  H      657.451    -751.694     165.062
  H      659.108    -750.226     163.887
  H      664.481    -757.378     168.417
  H      664.728    -755.736     167.815
  H      658.315    -749.402     165.228
  P      657.782    -749.858     168.628
  C      656.746    -747.543     169.070
  O      656.519    -748.861     168.608
  O      658.909    -749.010     167.847
  O      658.179    -750.373     169.973
  H      658.621    -748.822     166.930
  H      655.818    -746.973     168.981
  H      657.531    -747.066     168.473
  H      657.037    -747.556     170.130
  H      664.347    -747.813     164.986
  H      663.164    -746.885     165.876
  H      663.025    -747.044     164.142

 3  4  5  6  7  8  9  10  11  12  22  25  29  30  31  32 0
 6-311+G(2d,p)
 ****
 33  36  37 0
 6-311+G(2d,p)
 ****
 1  2  13  14  15  16  17  18  19  20  21  23  24  26 0
 3-21G
 ****
 27  28  34  35  38  39  40  41  42  43  44  45  46  47  48 0
 3-21G
 ****


