%nproc=1
%NoSave
%Mem=1900MB
#P OB98/GEN NMR

erre ene a

0 1
  C     -240.016    -152.048    -492.293
  O     -240.731    -150.839    -492.127
  H     -239.504    -152.280    -491.357
  H     -239.273    -151.944    -493.086
  H     -240.710    -152.858    -492.531
  P     -241.529    -150.292    -493.408
  C     -241.181    -147.950    -492.383
  O     -242.120    -148.875    -492.933
  C     -241.900    -146.942    -491.480
  O     -242.315    -147.620    -490.269
  C     -241.021    -145.756    -491.078
  O     -241.816    -144.569    -491.050
  C     -240.577    -146.107    -489.668
  O     -240.252    -144.947    -488.896
  C     -241.786    -146.885    -489.142
  N     -240.342    -147.154    -484.262
  C     -240.776    -146.126    -485.017
  N     -241.160    -146.144    -486.317
  C     -241.105    -147.400    -486.804
  C     -240.678    -148.541    -486.156
  C     -240.274    -148.390    -484.811
  N     -239.808    -149.427    -484.039
  N     -240.724    -149.630    -487.007
  C     -241.183    -149.147    -488.149
  N     -241.407    -147.799    -488.081
  O     -242.522    -151.234    -494.000
  O     -240.332    -149.860    -494.377
  H     -241.008    -144.327    -488.954
  H     -239.636    -149.377    -493.889
  H     -240.817    -145.158    -484.525
  H     -241.356    -149.727    -489.052
  H     -242.576    -146.236    -488.750
  H     -239.690    -146.748    -489.707
  H     -240.171    -145.619    -491.744
  H     -242.816    -146.605    -491.982
  H     -240.663    -147.414    -493.183
  H     -239.551    -149.231    -483.087
  H     -239.770    -150.359    -484.431
  H     -240.449    -148.519    -491.809
  P     -241.393    -143.350    -492.000
  C     -241.406    -141.337    -490.376
  O     -242.082    -141.999    -491.442
  O     -241.542    -143.582    -493.466
  O     -239.851    -143.126    -491.608
  H     -239.354    -142.887    -492.417
  H     -241.954    -140.462    -490.095
  H     -240.425    -141.055    -490.696
  H     -241.331    -141.997    -489.537

 6  7  8  9  10  11  12  13  14  15  25  28  32  33  34  35 0
 6-311+G(2d,p)
 ****
 36  39  40 0
 6-311+G(2d,p)
 ****
 1  2  3  4  5  16  17  18  19  20  21  22  23  24 0
 3-21G
 ****
 26  27  29  30  31  37  38  41  42  43  44  45  46  47 0
 3-21G
 ****
 48 0
 3-21G
 ****


