%nproc=1
%NoSave
%Mem=1900MB
#P OB98/GEN NMR

erre ene a

0 1
  C       33.848    -194.568      28.564
  O       33.189    -195.771      28.218
  H       34.924    -194.738      28.648
  H       33.670    -193.829      27.777
  H       33.457    -194.181      29.509
  P       33.357    -197.004      29.232
  C       35.280    -197.986      27.779
  O       33.995    -198.186      28.352
  C       35.617    -199.166      26.875
  O       36.882    -198.939      26.212
  C       35.771    -200.488      27.621
  O       34.527    -201.114      27.881
  C       36.591    -201.283      26.619
  O       35.742    -201.743      25.552
  C       37.568    -200.216      26.102
  N       42.676    -200.305      25.772
  C       41.711    -200.330      24.827
  N       40.374    -200.281      24.997
  C       40.062    -200.190      26.298
  C       40.936    -200.147      27.372
  C       42.307    -200.216      27.071
  N       43.293    -200.225      28.031
  N       40.239    -200.074      28.563
  C       38.969    -200.052      28.209
  N       38.811    -200.152      26.853
  O       31.856    -197.506      29.474
  O       34.088    -196.712      30.500
  H       36.152    -202.551      25.190
  H       31.818    -198.105      30.244
  H       42.059    -200.401      23.801
  H       38.134    -199.977      28.892
  H       37.832    -200.362      25.048
  H       37.057    -202.167      27.062
  H       36.354    -200.364      28.540
  H       34.844    -199.240      26.099
  H       36.021    -197.912      28.581
  H       44.232    -200.426      27.727
  H       43.025    -200.307      29.002
  H       35.279    -197.057      27.201
  P       34.006    -201.124      29.401
  C       35.317    -203.310      29.904
  O       34.055    -202.653      29.888
  O       32.440    -200.837      29.244
  O       34.678    -200.132      30.294
  H       32.099    -200.336      30.010
  H       35.191    -204.315      30.249
  H       35.982    -202.788      30.560
  H       35.726    -203.320      28.915

 6  7  8  9  10  11  12  13  14  15  25  28  32  33  34  35 0
 6-311+G(2d,p)
 ****
 36  39  40 0
 6-311+G(2d,p)
 ****
 1  2  3  4  5  16  17  18  19  20  21  22  23  24 0
 3-21G
 ****
 26  27  29  30  31  37  38  41  42  43  44  45  46  47 0
 3-21G
 ****
 48 0
 3-21G
 ****


