%nproc=1
%NoSave
%Mem=1900MB
#P OB98/GEN NMR

erre ene a

0 1
  C     -487.432    -726.502    1026.886
  O     -488.188    -725.661    1026.040
  P     -488.880    -726.220    1024.703
  C     -491.266    -726.425    1025.667
  O     -490.401    -725.713    1024.793
  C     -492.196    -725.479    1026.401
  O     -491.412    -724.633    1027.267
  C     -493.006    -724.521    1025.517
  O     -494.226    -725.079    1024.985
  C     -493.349    -723.430    1026.512
  O     -494.460    -723.860    1027.339
  C     -492.070    -723.344    1027.340
  N     -490.059    -718.760    1028.422
  C     -490.898    -719.567    1029.118
  N     -491.395    -720.769    1028.761
  C     -490.935    -721.144    1027.560
  C     -490.058    -720.419    1026.749
  C     -489.616    -719.178    1027.213
  N     -488.752    -718.369    1026.512
  N     -489.805    -721.128    1025.567
  C     -490.486    -722.232    1025.685
  N     -491.180    -722.304    1026.889
  O     -488.691    -727.684    1024.478
  O     -488.260    -725.327    1023.542
  H     -494.633    -723.145    1027.982
  H     -488.420    -725.753    1022.676
  H     -491.207    -719.214    1030.089
  H     -490.540    -723.025    1024.957
  H     -492.268    -723.160    1028.428
  H     -493.674    -722.512    1026.036
  H     -492.393    -724.094    1024.711
  H     -492.877    -726.087    1027.046
  H     -490.648    -726.963    1026.399
  H     -488.368    -717.531    1027.004
  H     -488.298    -718.740    1025.699
  H     -491.821    -727.186    1025.090
  P     -494.873    -724.334    1023.727
  C     -493.334    -725.483    1021.935
  O     -494.624    -725.312    1022.480
  O     -494.411    -722.937    1023.526
  O     -496.439    -724.485    1024.002
  H     -496.795    -725.401    1023.971
  H     -493.363    -726.291    1021.224
  H     -492.611    -725.727    1022.713
  H     -493.028    -724.558    1021.418
  H     -487.062    -725.935    1027.714
  H     -486.609    -726.912    1026.339
  H     -488.052    -727.296    1027.246

 3  4  5  6  7  8  9  10  11  12  22  25  29  30  31  32 0
 6-311+G(2d,p)
 ****
 33  36  37 0
 6-311+G(2d,p)
 ****
 1  2  13  14  15  16  17  18  19  20  21  23  24  26 0
 3-21G
 ****
 27  28  34  35  38  39  40  41  42  43  44  45  46  47  48 0
 3-21G
 ****


