%nproc=1
%NoSave
%Mem=1900MB
#P OB98/GEN NMR

erre ene a

0 1
  C      -39.421      -4.887     -25.014
  O      -39.684      -3.686     -24.315
  H      -38.549      -5.368     -24.566
  H      -39.208      -4.676     -26.065
  H      -40.277      -5.562     -24.932
  P      -40.915      -2.803     -24.842
  C      -40.915      -1.669     -22.515
  O      -40.884      -1.488     -23.924
  C      -40.301      -0.465     -21.807
  O      -38.867      -0.508     -21.904
  C      -40.728       0.882     -22.374
  O      -41.978       1.276     -21.832
  C      -39.601       1.775     -21.877
  O      -39.844       2.141     -20.505
  C      -38.373       0.854     -21.963
  N      -34.388       3.290     -24.094
  C      -35.049       3.496     -22.935
  N      -36.133       2.848     -22.457
  C      -36.524       1.885     -23.308
  C      -35.949       1.560     -24.527
  C      -34.826       2.308     -24.915
  N      -34.155       2.095     -26.099
  N      -36.626       0.519     -25.127
  C      -37.555       0.182     -24.257
  N      -37.559       1.001     -23.156
  O      -42.224      -3.509     -24.937
  O      -40.331      -2.265     -26.233
  H      -39.063       2.644     -20.205
  H      -39.394      -2.020     -26.138
  H      -34.658       4.292     -22.308
  H      -38.234      -0.656     -24.365
  H      -37.700       0.995     -21.110
  H      -39.520       2.704     -22.444
  H      -40.729       0.881     -23.469
  H      -40.556      -0.536     -20.740
  H      -40.370      -2.579     -22.239
  H      -33.489       2.796     -26.384
  H      -34.562       1.453     -26.764
  H      -41.962      -1.792     -22.219
  P      -42.596       2.724     -22.141
  C      -44.840       1.595     -22.688
  O      -44.171       2.563     -21.889
  O      -42.204       3.294     -23.458
  O      -42.125       3.625     -20.908
  H      -42.223       4.571     -21.131
  H      -45.879       1.578     -22.432
  H      -44.413       0.630     -22.511
  H      -44.731       1.849     -23.722

 6  7  8  9  10  11  12  13  14  15  25  28  32  33  34  35 0
 6-311+G(2d,p)
 ****
 36  39  40 0
 6-311+G(2d,p)
 ****
 1  2  3  4  5  16  17  18  19  20  21  22  23  24 0
 3-21G
 ****
 26  27  29  30  31  37  38  41  42  43  44  45  46  47 0
 3-21G
 ****
 48 0
 3-21G
 ****


