%nproc=1
%NoSave
%Mem=1900MB
#P OB98/GEN NMR

erre ene a

0 1
  C       -3.096      11.551     -14.342
  O       -2.265      11.649     -15.480
  H       -2.476      11.326     -13.471
  H       -3.826      10.748     -14.471
  H       -3.612      12.500     -14.173
  P       -2.991      11.873     -16.892
  C       -3.709      14.327     -16.430
  O       -4.120      12.987     -16.663
  C       -4.881      15.271     -16.682
  O       -5.197      15.293     -18.095
  C       -6.171      14.859     -15.987
  O       -6.188      15.205     -14.613
  C       -7.194      15.639     -16.794
  O       -7.330      16.986     -16.317
  C       -6.598      15.609     -18.213
  N       -7.303      14.664     -19.075
  C       -8.655      14.927     -19.279
  O       -9.240      15.887     -18.780
  N       -9.328      14.022     -20.052
  C       -8.807      12.880     -20.584
  O       -9.482      12.082     -21.222
  C       -7.379      12.645     -20.321
  C       -6.702      13.532     -19.586
  O       -3.822      10.522     -17.094
  O       -2.071      12.141     -18.037
  H       -3.393       9.969     -17.773
  H       -7.923      17.436     -16.951
  H      -10.308      14.196     -20.214
  H       -6.932      11.746     -20.727
  H       -5.651      13.375     -19.368
  H       -6.658      16.602     -18.675
  H       -8.175      15.175     -16.732
  H       -6.351      13.786     -16.127
  H       -4.585      16.283     -16.379
  H       -2.893      14.586     -17.111
  H       -3.349      14.416     -15.401
  P       -7.146      14.360     -13.641
  C       -5.855      12.082     -13.893
  O       -7.030      12.839     -14.131
  O       -8.582      14.845     -14.150
  O       -6.872      14.599     -12.196
  H       -8.560      15.125     -15.083
  H       -5.977      11.098     -14.295
  H       -5.680      12.018     -12.839
  H       -5.022      12.559     -14.365

 6  7  8  9  10  11  12  13  14  15  16  27  31  32  33  34  35 0
 6-311+G(2d,p)
 ****
 36  37 0
 6-311+G(2d,p)
 ****
 1  2  3  4  5  17  18  19  20  21  22  23  24  25 0
 3-21G
 ****
 26  28  29  30  38  39  40  41  42  43  44  45 0
 3-21G
 ****


