%nproc=1
%NoSave
%Mem=1900MB
#P OB98/GEN NMR

erre ene a

0 1
  C     -327.286     423.719    -267.052
  O     -327.334     422.743    -266.029
  H     -328.281     424.164    -267.161
  H     -327.003     423.275    -268.012
  H     -326.574     424.506    -266.789
  P     -326.032     421.838    -265.789
  C     -324.711     423.867    -264.880
  O     -324.787     422.840    -265.863
  C     -323.257     424.171    -264.546
  O     -322.671     423.068    -263.814
  C     -322.380     424.347    -265.783
  O     -322.606     425.619    -266.368
  C     -321.002     424.135    -265.196
  O     -320.526     425.305    -264.519
  C     -321.272     422.989    -264.184
  N     -320.943     421.673    -264.722
  C     -319.775     421.086    -264.233
  O     -319.093     421.662    -263.390
  N     -319.400     419.858    -264.718
  C     -320.134     419.269    -265.609
  N     -319.716     418.055    -266.065
  C     -321.385     419.847    -266.149
  C     -321.720     421.046    -265.665
  O     -325.895     420.609    -266.643
  O     -326.116     421.475    -264.230
  H     -319.657     425.059    -264.142
  H     -326.619     420.649    -264.097
  H     -321.966     419.317    -266.889
  H     -322.622     421.537    -266.008
  H     -320.689     423.145    -263.262
  H     -320.275     423.870    -265.959
  H     -322.579     423.551    -266.501
  H     -323.221     425.053    -263.902
  H     -318.847     417.697    -265.673
  H     -325.232     423.497    -263.989
  H     -320.246     417.462    -266.687
  H     -325.216     424.779    -265.222
  P     -322.219     425.885    -267.900
  C     -324.569     425.922    -268.969
  O     -323.372     425.177    -268.761
  O     -320.819     425.527    -268.278
  O     -322.549     427.447    -268.087
  H     -321.859     428.009    -267.653
  H     -325.253     425.343    -269.554
  H     -324.339     426.830    -269.486
  H     -325.014     426.153    -268.024

 6  7  8  9  10  11  12  13  14  15  16  26  30  31  32  33  35 0
 6-311+G(2d,p)
 ****
 37  38 0
 6-311+G(2d,p)
 ****
 1  2  3  4  5  17  18  19  20  21  22  23  24  25 0
 3-21G
 ****
 27  28  29  34  36  39  40  41  42  43  44  45  46 0
 3-21G
 ****


