%nproc=1
%NoSave
%Mem=1900MB
#P OB98/GEN NMR

erre ene a

0 1
  C      794.509      24.821     451.115
  O      793.242      24.660     450.515
  H      795.209      24.119     450.647
  H      794.455      24.595     452.181
  H      794.884      25.835     450.967
  P      792.072      25.682     450.903
  C      790.409      24.412     452.409
  O      791.548      25.265     452.359
  C      789.257      25.124     453.131
  O      789.755      25.769     454.321
  C      788.601      26.216     452.305
  O      787.758      25.681     451.306
  C      787.890      27.005     453.393
  O      786.647      26.393     453.747
  C      788.899      26.911     454.561
  N      789.677      28.141     454.712
  C      788.971      29.338     454.602
  O      787.758      29.401     454.401
  N      789.724      30.475     454.678
  C      791.084      30.530     454.708
  O      791.720      31.564     454.513
  C      791.770      29.244     454.888
  C      791.041      28.123     454.873
  O      791.003      25.863     449.879
  O      792.851      27.057     451.187
  H      792.753      27.647     450.415
  H      786.863      25.521     454.116
  H      789.217      31.351     454.552
  H      792.852      29.252     454.980
  H      791.531      27.157     454.968
  H      788.367      26.713     455.506
  H      787.684      28.026     453.077
  H      789.369      26.855     451.854
  H      788.521      24.361     453.430
  H      790.675      23.504     452.960
  H      790.120      24.139     451.391
  P      787.655      26.387     449.864
  C      785.568      27.728     450.545
  O      786.901      27.795     450.051
  O      787.118      25.525     448.773
  O      789.158      26.834     449.553
  H      789.400      26.534     448.657
  H      785.168      28.717     450.629
  H      785.567      27.261     451.508
  H      784.966      27.156     449.870

 6  7  8  9  10  11  12  13  14  15  16  27  31  32  33  34  35 0
 6-311+G(2d,p)
 ****
 36  37 0
 6-311+G(2d,p)
 ****
 1  2  3  4  5  17  18  19  20  21  22  23  24  25 0
 3-21G
 ****
 26  28  29  30  38  39  40  41  42  43  44  45 0
 3-21G
 ****


