%nproc=1
%NoSave
%Mem=1900MB
#P OB98/GEN NMR

erre ene a

0 1
  C     -260.722     -81.870    -676.333
  O     -260.234     -81.982    -677.653
  P     -260.503     -80.796    -678.710
  C     -258.059     -80.551    -679.476
  O     -259.392     -80.881    -679.864
  C     -257.047     -81.141    -680.467
  O     -256.918     -82.574    -680.286
  C     -257.452     -80.965    -681.924
  O     -257.293     -79.624    -682.375
  C     -256.527     -81.984    -682.600
  O     -255.218     -81.438    -682.775
  C     -256.512     -83.120    -681.553
  N     -257.356     -84.254    -681.958
  C     -256.704     -85.325    -682.590
  O     -255.497     -85.240    -682.857
  N     -257.430     -86.436    -682.892
  C     -258.708     -86.442    -682.711
  N     -259.376     -87.603    -682.989
  C     -259.469     -85.278    -682.197
  C     -258.718     -84.233    -681.823
  O     -260.681     -79.438    -678.107
  O     -261.837     -81.258    -679.462
  H     -262.482     -80.509    -679.478
  H     -254.672     -82.137    -683.196
  H     -260.545     -85.305    -682.123
  H     -259.174     -83.330    -681.405
  H     -255.474     -83.473    -681.415
  H     -256.894     -82.282    -683.589
  H     -258.504     -81.275    -682.071
  H     -256.069     -80.678    -680.281
  H     -258.834     -88.379    -683.330
  H     -257.865     -80.960    -678.473
  H     -260.288     -87.819    -682.588
  H     -257.956     -79.468    -679.430
  P     -258.180     -79.162    -683.617
  C     -257.699     -76.703    -682.925
  O     -257.757     -77.653    -683.974
  O     -259.654     -78.990    -682.980
  O     -258.192     -80.117    -684.767
  H     -260.328     -79.276    -683.638
  H     -257.055     -75.869    -683.251
  H     -257.249     -77.143    -682.019
  H     -258.693     -76.331    -682.701
  H     -260.451     -82.743    -675.777
  H     -261.788     -81.776    -676.353
  H     -260.297     -81.005    -675.868

 3  4  5  6  7  8  9  10  11  12  13  24  27  28  29  30  32 0
 6-311+G(2d,p)
 ****
 34  35 0
 6-311+G(2d,p)
 ****
 1  2  14  15  16  17  18  19  20  21  22  23  25  26 0
 3-21G
 ****
 31  33  36  37  38  39  40  41  42  43  44  45  46 0
 3-21G
 ****


