%nproc=1
%NoSave
%Mem=1900MB
#P OB98/GEN NMR

erre ene a

0 1
  C      174.159     -77.611     -55.228
  O      175.408     -77.110     -55.659
  P      176.321     -77.930     -56.686
  C      177.998     -78.236     -54.751
  O      177.277     -78.876     -55.801
  C      179.507     -78.407     -54.962
  O      180.213     -77.706     -53.890
  C      179.954     -79.883     -54.938
  O      180.726     -80.287     -56.071
  C      180.656     -79.998     -53.594
  O      181.555     -81.089     -53.507
  C      181.251     -78.595     -53.432
  N      181.661     -78.314     -52.057
  C      183.028     -78.304     -51.792
  O      183.900     -78.507     -52.632
  N      183.384     -78.115     -50.485
  C      182.531     -78.050     -49.422
  O      182.920     -77.976     -48.265
  C      181.096     -78.104     -49.763
  C      180.729     -78.207     -51.043
  O      177.043     -77.106     -57.698
  O      175.300     -78.990     -57.316
  H      181.842     -81.168     -52.578
  H      174.882     -79.591     -56.673
  H      184.369     -78.107     -50.280
  H      180.396     -78.064     -48.941
  H      179.682     -78.250     -51.324
  H      182.116     -78.448     -54.086
  H      179.888     -80.157     -52.827
  H      179.089     -80.559     -54.953
  H      179.765     -77.933     -55.913
  H      177.715     -78.696     -53.804
  H      177.721     -77.178     -54.699
  P      180.166     -81.131     -57.313
  C      181.768     -83.162     -57.057
  O      180.440     -82.682     -57.028
  O      180.604     -80.650     -58.658
  O      178.574     -81.007     -57.160
  H      178.156     -81.065     -58.039
  H      181.752     -84.216     -57.350
  H      182.201     -83.088     -56.055
  H      182.384     -82.609     -57.768
  H      173.711     -76.916     -54.549
  H      174.302     -78.550     -54.735
  H      173.518     -77.746     -56.074

 3  4  5  6  7  8  9  10  11  12  13  23  28  29  30  31  32 0
 6-311+G(2d,p)
 ****
 33  34 0
 6-311+G(2d,p)
 ****
 1  2  14  15  16  17  18  19  20  21  22  24  25  26  27 0
 3-21G
 ****
 35  36  37  38  39  40  41  42  43  44  45 0
 3-21G
 ****


