%nproc=1
%NoSave
%Mem=1900MB
#P OB98/GEN NMR

erre ene a

0 1
  C      -83.826     266.855     -93.373
  O      -83.645     267.152     -94.744
  H      -82.877     266.501     -92.963
  H      -84.573     266.064     -93.263
  H      -84.138     267.745     -92.821
  P      -84.809     267.992     -95.463
  C      -85.782     265.886     -96.629
  O      -86.012     266.965     -95.735
  C      -86.823     265.892     -97.743
  O      -86.516     264.881     -98.728
  C      -88.249     265.613     -97.273
  O      -88.876     266.789     -96.780
  C      -88.891     265.158     -98.574
  O      -89.169     266.304     -99.405
  C      -87.769     264.318     -99.203
  N      -90.628     260.125     -99.118
  C      -90.959     261.416     -99.477
  N      -92.238     261.623     -99.859
  N      -90.121     262.422     -99.458
  C      -88.880     262.071     -99.031
  C      -88.433     260.827     -98.643
  C      -89.367     259.728     -98.682
  O      -89.119     258.561     -98.386
  N      -87.113     260.864     -98.271
  C      -86.771     262.127     -98.413
  N      -87.809     262.903     -98.868
  O      -84.200     268.261     -96.922
  O      -85.181     269.268     -94.786
  H      -89.396     265.965    -100.291
  H      -83.874     269.181     -96.963
  H      -91.314     259.392     -99.142
  H      -85.788     262.528     -98.208
  H      -87.764     264.384    -100.300
  H      -89.838     264.639     -98.418
  H      -92.942     260.902     -99.876
  H      -88.281     264.796     -96.542
  H      -92.505     262.564    -100.131
  H      -86.767     266.867     -98.249
  H      -85.842     264.944     -96.077
  H      -84.778     265.990     -97.055
  P      -90.064     266.624     -95.712
  C      -91.866     267.561     -97.325
  O      -91.424     266.455     -96.549
  O      -90.185     268.094     -95.094
  O      -89.829     265.604     -94.653
  H      -89.888     268.088     -94.162
  H      -92.777     267.305     -97.824
  H      -91.120     267.809     -98.051
  H      -92.034     268.402     -96.685

 6  7  8  9  10  11  12  13  14  15  26  29  33  34 0
 6-311+G(2d,p)
 ****
 36  38  39  40  41 0
 6-311+G(2d,p)
 ****
 1  2  3  4  5  16  17  18  19  20  21  22  23  24  25 0
 3-21G
 ****
 27  28  30  31  32  35  37  42  43  44  45  46  47 0
 3-21G
 ****
 48  49 0
 3-21G
 ****


