%nproc=1
%NoSave
%Mem=1900MB
#P OB98/GEN NMR

erre ene a

0 1
  C       28.096      -5.192     -85.961
  O       28.273      -4.328     -84.857
  H       27.027      -5.303     -86.155
  H       28.517      -6.175     -85.738
  H       28.576      -4.777     -86.852
  P       29.778      -3.935     -84.472
  C       30.394      -5.581     -82.551
  O       30.471      -5.281     -83.936
  C       31.756      -6.065     -82.049
  O       32.079      -7.313     -82.719
  C       32.894      -5.080     -82.340
  O       33.820      -5.102     -81.250
  C       33.547      -5.660     -83.582
  O       34.900      -5.263     -83.756
  C       33.380      -7.161     -83.324
  N       33.478      -7.954     -84.548
  C       34.463      -8.934     -84.598
  O       35.205      -9.231     -83.663
  N       34.580      -9.593     -85.795
  C       33.849      -9.357     -86.921
  O       34.017      -9.964     -87.971
  C       32.829      -8.303     -86.808
  C       32.694      -7.660     -85.647
  O       29.604      -3.062     -83.142
  O       30.551      -3.223     -85.529
  H       29.507      -2.116     -83.365
  H       35.314      -5.873     -84.400
  H       35.289     -10.309     -85.848
  H       32.234      -8.081     -87.684
  H       31.961      -6.868     -85.535
  H       34.123      -7.509     -82.597
  H       32.988      -5.356     -84.475
  H       32.543      -4.060     -82.504
  H       31.684      -6.282     -80.977
  H       29.652      -6.370     -82.395
  H       30.085      -4.685     -82.003
  P       33.610      -4.020     -80.081
  C       36.179      -3.754     -79.674
  O       34.955      -3.144     -80.047
  O       33.701      -4.941     -78.779
  O       32.343      -3.245     -80.226
  H       34.352      -5.658     -78.856
  H       36.964      -3.028     -79.706
  H       36.402      -4.551     -80.353
  H       36.095      -4.144     -78.681

 6  7  8  9  10  11  12  13  14  15  16  27  31  32  33  34  35 0
 6-311+G(2d,p)
 ****
 36  37 0
 6-311+G(2d,p)
 ****
 1  2  3  4  5  17  18  19  20  21  22  23  24  25 0
 3-21G
 ****
 26  28  29  30  38  39  40  41  42  43  44  45 0
 3-21G
 ****


