%nproc=1
%NoSave
%Mem=1900MB
#P OB98/GEN NMR

erre ene a

0 1
  C      109.773     -93.385     -25.614
  O      109.292     -92.107     -25.962
  P      107.926     -91.859     -26.749
  C      109.277     -91.412     -28.944
  O      108.190     -92.082     -28.314
  C      109.556     -92.002     -30.335
  O      109.997     -93.376     -30.172
  C      108.285     -92.041     -31.197
  O      108.492     -91.666     -32.556
  C      107.737     -93.437     -30.935
  O      106.834     -93.892     -31.932
  C      109.020     -94.248     -30.779
  N      108.012     -99.230     -30.720
  C      108.279     -98.412     -31.799
  N      108.072     -98.950     -33.021
  N      108.675     -97.168     -31.681
  C      108.728     -96.735     -30.399
  C      108.489     -97.455     -29.250
  C      108.086     -98.836     -29.396
  O      107.729     -99.567     -28.470
  N      108.571     -96.672     -28.131
  C      108.829     -95.466     -28.600
  N      108.898     -95.450     -29.975
  O      107.123     -90.667     -26.334
  O      107.080     -93.176     -26.359
  H      106.439     -94.726     -31.613
  H      106.138     -92.910     -26.307
  H      107.631    -100.158     -30.877
  H      108.940     -94.571     -27.999
  H      109.412     -94.571     -31.744
  H      107.178     -93.402     -29.995
  H      107.629     -99.849     -33.138
  H      107.557     -91.302     -30.841
  H      108.016     -98.305     -33.806
  H      110.371     -91.443     -30.807
  H      110.147     -91.558     -28.291
  H      109.083     -90.340     -29.011
  P      107.413     -91.441     -33.709
  C      107.776     -93.689     -34.893
  O      106.865     -92.873     -34.182
  O      108.253     -90.948     -34.975
  O      106.343     -90.452     -33.379
  H      107.755     -90.251     -35.448
  H      107.217     -94.490     -35.387
  H      108.492     -94.135     -34.195
  H      108.313     -93.108     -35.648
  H      110.703     -93.287     -25.094
  H      109.920     -93.965     -26.501
  H      109.061     -93.874     -24.982

 3  4  5  6  7  8  9  10  11  12  23  26  30  31 0
 6-311+G(2d,p)
 ****
 33  35  36  37  38 0
 6-311+G(2d,p)
 ****
 1  2  13  14  15  16  17  18  19  20  21  22  24  25 0
 3-21G
 ****
 27  28  29  32  34  39  40  41  42  43  44  45  46  47  48  49 0
 3-21G
 ****


