%nproc=1
%NoSave
%Mem=1900MB
#P OB98/GEN NMR

erre ene a

0 1
  C     -311.004     659.441    -711.312
  O     -310.509     658.568    -712.322
  P     -311.495     657.970    -713.443
  C     -312.733     655.743    -713.791
  O     -312.076     656.594    -712.848
  C     -313.946     655.067    -713.139
  O     -313.486     654.050    -712.222
  C     -314.826     656.047    -712.341
  O     -316.200     655.651    -712.488
  C     -314.419     655.807    -710.889
  O     -315.478     656.155    -709.988
  C     -314.041     654.331    -710.916
  N     -313.120     653.643    -705.909
  C     -314.256     653.955    -706.586
  N     -314.424     654.143    -707.908
  C     -313.262     653.931    -708.565
  C     -312.035     653.601    -708.014
  C     -311.986     653.458    -706.612
  N     -310.835     653.125    -705.931
  N     -311.080     653.480    -708.999
  C     -311.724     653.722    -710.130
  N     -313.051     653.974    -709.917
  O     -310.893     657.852    -714.803
  O     -312.755     658.941    -713.432
  H     -315.114     656.108    -709.078
  H     -313.093     659.079    -714.348
  H     -315.145     654.076    -705.966
  H     -311.277     653.719    -711.112
  H     -314.915     653.685    -710.776
  H     -313.550     656.443    -710.648
  H     -314.694     657.093    -712.652
  H     -314.531     654.575    -713.920
  H     -312.035     654.974    -714.115
  H     -310.923     652.928    -704.950
  H     -310.023     652.829    -706.473
  H     -313.037     656.333    -714.668
  P     -317.241     656.860    -712.751
  C     -319.066     657.967    -711.257
  O     -318.166     656.893    -711.438
  O     -317.921     656.722    -714.074
  O     -316.279     658.131    -712.618
  H     -315.490     657.945    -712.057
  H     -319.576     657.827    -710.289
  H     -319.828     657.980    -712.055
  H     -318.537     658.927    -711.247
  H     -310.202     659.730    -710.665
  H     -311.757     658.937    -710.743
  H     -311.425     660.312    -711.769

 3  4  5  6  7  8  9  10  11  12  22  25  29  30  31  32 0
 6-311+G(2d,p)
 ****
 33  36  37 0
 6-311+G(2d,p)
 ****
 1  2  13  14  15  16  17  18  19  20  21  23  24  26 0
 3-21G
 ****
 27  28  34  35  38  39  40  41  42  43  44  45  46  47  48 0
 3-21G
 ****


