%nproc=1
%NoSave
%Mem=1900MB
#P OB98/GEN NMR

erre ene a

0 1
  C      -33.807     122.643     158.238
  O      -32.761     121.675     158.365
  P      -32.629     120.518     157.264
  C      -31.136     121.975     155.749
  O      -31.273     120.739     156.433
  C      -29.707     122.151     155.209
  O      -28.809     122.493     156.295
  C      -29.167     120.884     154.528
  O      -28.630     121.131     153.226
  C      -28.190     120.321     155.550
  O      -27.201     119.482     154.973
  C      -27.693     121.579     156.273
  N      -27.192     121.280     157.618
  C      -26.041     120.502     157.696
  O      -25.495     120.006     156.711
  N      -25.576     120.250     158.958
  C      -26.172     120.629     160.122
  O      -25.735     120.340     161.230
  C      -27.420     121.394     159.980
  C      -27.864     121.682     158.750
  O      -33.847     120.267     156.436
  O      -32.278     119.222     158.151
  H      -26.653     119.112     155.696
  H      -32.750     118.457     157.769
  H      -24.732     119.704     159.032
  H      -27.934     121.694     160.883
  H      -28.787     122.233     158.619
  H      -26.876     122.051     155.720
  H      -28.754     119.707     156.265
  H      -29.963     120.153     154.348
  H      -29.727     122.986     154.501
  H      -31.356     122.798     156.432
  H      -31.884     122.035     154.952
  P      -29.409     120.847     151.858
  C      -30.531     123.061     151.112
  O      -29.418     122.197     150.995
  O      -30.737     120.176     151.991
  O      -28.388     119.903     151.051
  H      -28.896     119.202     150.593
  H      -30.567     123.707     150.229
  H      -30.414     123.690     152.001
  H      -31.472     122.505     151.182
  H      -33.751     123.337     159.050
  H      -34.755     122.148     158.257
  H      -33.697     123.168     157.312

 3  4  5  6  7  8  9  10  11  12  13  23  28  29  30  31  32 0
 6-311+G(2d,p)
 ****
 33  34 0
 6-311+G(2d,p)
 ****
 1  2  14  15  16  17  18  19  20  21  22  24  25  26  27 0
 3-21G
 ****
 35  36  37  38  39  40  41  42  43  44  45 0
 3-21G
 ****


