%nproc=1
%NoSave
%Mem=1900MB
#P OB98/GEN NMR

erre ene a

0 1
  C       96.703       0.379    -187.503
  O       96.684       1.621    -186.827
  P       95.516       1.990    -185.793
  C       94.169       3.114    -187.682
  O       94.165       2.125    -186.660
  C       92.971       4.058    -187.515
  O       91.743       3.298    -187.716
  C       92.902       4.699    -186.113
  O       92.797       6.124    -186.112
  C       91.746       3.959    -185.459
  O       91.168       4.641    -184.363
  C       90.835       3.685    -186.664
  N       89.835       2.659    -186.385
  C       88.765       3.021    -185.563
  O       88.611       4.139    -185.075
  N       87.883       2.027    -185.253
  C       88.016       0.703    -185.581
  O       87.238      -0.150    -185.190
  C       89.181       0.374    -186.417
  C       90.010       1.352    -186.791
  O       95.794       3.151    -184.906
  O       95.271       0.609    -185.014
  H       91.893       4.935    -183.775
  H       95.003      -0.139    -185.576
  H       87.103       2.273    -184.662
  H       89.319      -0.666    -186.680
  H       90.882       1.135    -187.407
  H       90.323       4.590    -186.992
  H       92.133       3.004    -185.070
  H       93.826       4.506    -185.541
  H       93.040       4.827    -188.298
  H       94.099       2.616    -188.658
  H       95.113       3.667    -187.666
  P       93.671       7.116    -185.210
  C       91.909       7.280    -183.292
  O       93.220       6.919    -183.681
  O       93.723       8.525    -185.669
  O       95.133       6.461    -185.236
  H       95.806       7.154    -185.132
  H       91.925       7.569    -182.237
  H       91.245       6.421    -183.417
  H       91.537       8.123    -183.882
  H       97.560       0.334    -188.142
  H       95.815       0.279    -188.091
  H       96.749      -0.416    -186.788

 3  4  5  6  7  8  9  10  11  12  13  23  28  29  30  31  32 0
 6-311+G(2d,p)
 ****
 33  34 0
 6-311+G(2d,p)
 ****
 1  2  14  15  16  17  18  19  20  21  22  24  25  26  27 0
 3-21G
 ****
 35  36  37  38  39  40  41  42  43  44  45 0
 3-21G
 ****


