%nproc=1
%NoSave
%Mem=1900MB
#P OB98/GEN NMR

erre ene a

0 1
  C     -185.552       5.635    -220.650
  O     -184.401       6.065    -219.955
  P     -184.035       7.604    -219.731
  C     -181.583       7.694    -220.588
  O     -182.945       8.027    -220.835
  C     -180.622       8.292    -221.626
  O     -181.104       7.996    -222.953
  C     -180.595       9.819    -221.506
  O     -179.768      10.445    -220.545
  C     -180.422      10.325    -222.931
  O     -179.067      10.658    -223.235
  C     -180.889       9.145    -223.788
  N     -183.299      12.305    -226.935
  C     -181.954      12.245    -226.624
  N     -181.200      13.274    -227.067
  N     -181.416      11.277    -225.930
  C     -182.314      10.372    -225.478
  C     -183.667      10.318    -225.729
  C     -184.243      11.371    -226.532
  O     -185.443      11.506    -226.758
  N     -184.274       9.297    -225.044
  C     -183.299       8.756    -224.344
  N     -182.099       9.397    -224.543
  O     -183.835       8.051    -218.319
  O     -185.370       8.329    -220.281
  H     -178.550       9.832    -223.252
  H     -185.512       9.132    -219.739
  H     -183.675      13.117    -227.408
  H     -183.414       7.923    -223.659
  H     -180.114       8.865    -224.511
  H     -181.007      11.239    -223.092
  H     -181.605      14.104    -227.476
  H     -181.611      10.128    -221.219
  H     -180.252      13.350    -226.717
  H     -179.632       7.830    -221.560
  H     -181.509       6.605    -220.574
  H     -181.299       8.048    -219.591
  P     -179.699      12.008    -220.227
  C     -177.166      12.167    -220.573
  O     -178.438      12.626    -220.998
  O     -179.246      12.080    -218.692
  O     -180.982      12.749    -220.425
  H     -179.508      12.939    -218.310
  H     -176.399      12.853    -220.933
  H     -176.981      11.172    -220.990
  H     -177.114      12.117    -219.481
  H     -185.579       4.565    -220.668
  H     -185.524       6.008    -221.652
  H     -186.426       6.005    -220.156

 3  4  5  6  7  8  9  10  11  12  23  26  30  31 0
 6-311+G(2d,p)
 ****
 33  35  36  37  38 0
 6-311+G(2d,p)
 ****
 1  2  13  14  15  16  17  18  19  20  21  22  24  25 0
 3-21G
 ****
 27  28  29  32  34  39  40  41  42  43  44  45  46  47  48  49 0
 3-21G
 ****


