%nproc=1
%NoSave
%Mem=1900MB
#P OB98/GEN NMR

erre ene a

0 1
  C      702.764      18.392     366.456
  O      701.808      18.486     367.492
  H      702.357      17.765     365.660
  H      703.685      17.931     366.828
  H      702.984      19.381     366.044
  P      702.163      19.357     368.788
  C      700.708      19.975     370.847
  O      700.733      19.672     369.458
  C      699.348      19.625     371.440
  O      698.350      20.605     371.078
  C      698.764      18.289     370.971
  O      699.399      17.161     371.536
  C      697.329      18.454     371.447
  O      697.269      18.256     372.870
  C      697.058      19.930     371.072
  N      696.408      20.072     369.765
  C      695.011      19.997     369.753
  O      694.378      19.809     370.795
  N      694.353      20.097     368.548
  C      695.038      20.240     367.455
  N      694.333      20.334     366.291
  C      696.507      20.305     367.423
  C      697.126      20.219     368.596
  O      703.039      20.546     368.562
  O      702.775      18.301     369.826
  H      697.870      18.913     373.271
  H      703.024      18.793     370.649
  H      697.031      20.399     366.479
  H      698.207      20.256     368.656
  H      696.437      20.415     371.832
  H      696.646      17.738     370.991
  H      698.762      18.233     369.871
  H      699.445      19.653     372.532
  H      693.323      20.284     366.346
  H      700.930      21.037     370.968
  H      694.788      20.371     365.388
  H      701.474      19.389     371.369
  P      699.441      15.825     370.635
  C      701.303      14.107     369.995
  O      700.936      15.256     370.744
  O      699.342      16.391     369.143
  O      698.376      14.820     370.947
  H      698.428      16.328     368.807
  H      702.328      13.869     370.187
  H      701.172      14.304     368.952
  H      700.685      13.282     370.282

 6  7  8  9  10  11  12  13  14  15  16  26  30  31  32  33  35 0
 6-311+G(2d,p)
 ****
 37  38 0
 6-311+G(2d,p)
 ****
 1  2  3  4  5  17  18  19  20  21  22  23  24  25 0
 3-21G
 ****
 27  28  29  34  36  39  40  41  42  43  44  45  46 0
 3-21G
 ****


