%nproc=1
%NoSave
%Mem=1900MB
#P OB98/GEN NMR

erre ene a

0 1
  C       70.211     322.631    -446.573
  O       69.458     323.584    -447.314
  P       69.526     325.149    -446.965
  C       67.354     325.311    -445.565
  O       68.782     325.290    -445.553
  C       66.823     325.243    -444.137
  O       67.213     323.989    -443.530
  C       67.355     326.327    -443.210
  O       66.713     327.575    -443.463
  C       67.072     325.703    -441.846
  O       65.692     325.879    -441.489
  C       67.355     324.212    -442.108
  N       68.691     323.795    -441.653
  C       68.798     323.423    -440.306
  O       67.801     323.433    -439.568
  N       70.011     322.994    -439.830
  C       71.048     322.985    -440.620
  N       72.215     322.491    -440.116
  C       70.993     323.424    -442.026
  C       69.793     323.807    -442.471
  O       69.020     326.058    -448.036
  O       71.063     325.406    -446.569
  H       65.502     326.836    -441.536
  H       71.628     325.632    -447.346
  H       71.885     323.402    -442.645
  H       69.664     324.134    -443.505
  H       66.599     323.587    -441.623
  H       67.685     326.130    -441.042
  H       68.441     326.447    -443.344
  H       65.720     325.274    -444.183
  H       72.156     322.032    -439.210
  H       66.995     324.436    -446.120
  H       72.958     322.179    -440.723
  H       67.011     326.218    -446.073
  P       67.558     328.917    -443.187
  C       66.701     329.021    -440.736
  O       67.820     328.944    -441.596
  O       66.487     330.079    -443.433
  O       68.777     329.059    -444.046
  H       66.621     330.475    -444.314
  H       67.033     328.792    -439.722
  H       65.930     328.298    -441.024
  H       66.294     330.036    -440.740
  H       70.027     321.651    -446.961
  H       69.919     322.668    -445.544
  H       71.253     322.858    -446.656

 3  4  5  6  7  8  9  10  11  12  13  23  27  28  29  30  32 0
 6-311+G(2d,p)
 ****
 34  35 0
 6-311+G(2d,p)
 ****
 1  2  14  15  16  17  18  19  20  21  22  24  25  26 0
 3-21G
 ****
 31  33  36  37  38  39  40  41  42  43  44  45  46 0
 3-21G
 ****


