%nproc=1
%NoSave
%Mem=1900MB
#P OB98/GEN NMR

erre ene a

0 1
  C      137.217      76.065    -128.961
  O      137.651      77.077    -128.074
  H      136.758      76.538    -129.834
  H      136.472      75.425    -128.480
  H      138.067      75.461    -129.294
  P      138.290      76.643    -126.672
  C      137.301      75.380    -124.640
  O      137.060      76.299    -125.703
  C      136.064      75.252    -123.750
  O      134.873      75.178    -124.558
  C      136.053      74.001    -122.877
  O      136.944      74.143    -121.787
  C      134.579      73.930    -122.512
  O      134.262      74.866    -121.471
  C      133.916      74.352    -123.845
  N      133.495      73.222    -124.669
  C      132.412      72.477    -124.181
  O      131.886      72.778    -123.110
  N      131.974      71.403    -124.917
  C      132.531      71.124    -126.054
  N      132.047      70.046    -126.738
  C      133.649      71.904    -126.620
  C      134.082      72.922    -125.880
  O      139.297      77.582    -126.083
  O      138.931      75.203    -126.968
  H      133.289      74.847    -121.376
  H      139.873      75.289    -127.203
  H      134.077      71.642    -127.579
  H      134.899      73.550    -126.220
  H      133.037      74.984    -123.654
  H      134.288      72.943    -122.153
  H      136.304      73.116    -123.476
  H      135.993      76.160    -123.139
  H      131.267      69.555    -126.317
  H      138.143      75.771    -124.060
  H      132.290      69.838    -127.694
  H      137.582      74.397    -125.036
  P      136.844      73.204    -120.494
  C      135.076      72.794    -118.669
  O      135.362      73.422    -119.909
  O      137.943      73.376    -119.498
  O      136.760      71.727    -121.102
  H      137.657      71.423    -121.395
  H      134.067      73.010    -118.384
  H      135.745      73.163    -117.920
  H      135.200      71.736    -118.768

 6  7  8  9  10  11  12  13  14  15  16  26  30  31  32  33  35 0
 6-311+G(2d,p)
 ****
 37  38 0
 6-311+G(2d,p)
 ****
 1  2  3  4  5  17  18  19  20  21  22  23  24  25 0
 3-21G
 ****
 27  28  29  34  36  39  40  41  42  43  44  45  46 0
 3-21G
 ****


