%nproc=1
%NoSave
%Mem=1900MB
#P OB98/GEN NMR

erre ene a

0 1
  C     -405.762    -708.679     178.778
  O     -404.349    -708.935     178.721
  P     -403.841    -710.269     177.967
  C     -402.440    -708.921     176.212
  O     -402.459    -709.945     177.219
  C     -401.060    -708.270     176.167
  O     -400.831    -707.468     177.345
  C     -399.892    -709.267     176.154
  O     -399.712    -709.828     174.854
  C     -398.732    -708.378     176.585
  O     -398.206    -707.625     175.457
  C     -399.396    -707.424     177.599
  N     -399.084    -707.772     178.979
  C     -398.013    -707.104     179.554
  O     -397.300    -706.296     178.931
  N     -397.742    -707.425     180.861
  C     -398.374    -708.354     181.621
  O     -398.087    -708.597     182.777
  C     -399.453    -709.082     180.932
  C     -399.747    -708.777     179.677
  O     -404.872    -710.386     176.753
  O     -403.854    -711.536     178.788
  H     -397.630    -706.927     175.842
  H     -404.979    -711.335     176.481
  H     -396.977    -706.925     181.316
  H     -399.971    -709.857     181.488
  H     -400.530    -709.318     179.139
  H     -399.100    -706.399     177.424
  H     -397.889    -708.946     177.002
  H     -400.050    -710.050     176.914
  H     -401.011    -707.607     175.304
  H     -403.176    -708.165     176.464
  H     -402.675    -709.367     175.254
  P     -398.659    -711.059     174.753
  C     -400.454    -712.719     173.824
  O     -399.248    -712.013     173.625
  O     -398.938    -711.822     176.139
  O     -397.254    -710.578     174.581
  H     -399.873    -711.776     176.401
  H     -401.140    -712.144     174.429
  H     -400.241    -713.675     174.285
  H     -400.907    -712.919     172.844
  H     -405.938    -707.765     179.306
  H     -406.250    -709.484     179.286
  H     -406.150    -708.597     177.784

 3  4  5  6  7  8  9  10  11  12  13  23  28  29  30  31  32 0
 6-311+G(2d,p)
 ****
 33  34 0
 6-311+G(2d,p)
 ****
 1  2  14  15  16  17  18  19  20  21  22  24  25  26 0
 3-21G
 ****
 27  35  36  37  38  39  40  41  42  43  44  45 0
 3-21G
 ****


