%nproc=1
%NoSave
%Mem=1900MB
#P OB98/GEN NMR

erre ene a

0 1
  C     -519.020    -551.916    -236.318
  O     -518.802    -550.515    -236.146
  P     -517.414    -550.015    -235.528
  C     -517.807    -547.645    -236.468
  O     -517.488    -548.420    -235.320
  C     -519.302    -547.741    -236.794
  O     -520.099    -547.351    -235.639
  C     -519.708    -546.820    -237.956
  O     -520.774    -547.416    -238.713
  C     -520.271    -545.607    -237.241
  O     -521.125    -544.847    -238.094
  C     -520.961    -546.271    -236.051
  N     -524.493    -544.273    -232.924
  C     -524.567    -545.233    -233.865
  N     -523.584    -545.732    -234.644
  C     -522.412    -545.142    -234.359
  C     -522.176    -544.148    -233.416
  C     -523.284    -543.703    -232.679
  N     -523.208    -542.701    -231.740
  N     -520.844    -543.785    -233.412
  C     -520.298    -544.505    -234.371
  N     -521.197    -545.365    -234.950
  O     -516.185    -550.503    -236.215
  O     -517.484    -550.558    -234.020
  H     -520.594    -544.557    -238.859
  H     -516.601    -550.913    -233.764
  H     -525.557    -545.659    -234.020
  H     -519.269    -544.435    -234.695
  H     -521.930    -546.704    -236.332
  H     -519.449    -544.959    -236.912
  H     -518.898    -546.563    -238.638
  H     -519.549    -548.782    -237.019
  H     -517.214    -547.990    -237.318
  H     -524.073    -542.372    -231.341
  H     -522.351    -542.173    -231.655
  H     -517.501    -546.610    -236.294
  P     -520.356    -548.050    -240.134
  C     -521.962    -550.115    -240.071
  O     -521.640    -548.868    -240.641
  O     -519.071    -548.800    -240.098
  O     -520.320    -546.753    -241.079
  H     -521.109    -546.190    -241.027
  H     -522.931    -550.441    -240.452
  H     -522.027    -550.043    -238.983
  H     -521.211    -550.858    -240.342
  H     -519.990    -552.077    -236.739
  H     -518.958    -552.406    -235.369
  H     -518.275    -552.315    -236.975

 3  4  5  6  7  8  9  10  11  12  22  25  29  30  31  32 0
 6-311+G(2d,p)
 ****
 33  36  37 0
 6-311+G(2d,p)
 ****
 1  2  13  14  15  16  17  18  19  20  21  23  24  26 0
 3-21G
 ****
 27  28  34  35  38  39  40  41  42  43  44  45  46  47  48 0
 3-21G
 ****


