%nproc=1
%NoSave
%Mem=1900MB
#P OB98/GEN NMR

erre ene a

0 1
  C      367.464     455.914    -346.167
  O      366.364     456.027    -345.273
  P      365.065     455.137    -345.593
  C      363.876     457.109    -346.771
  O      363.799     456.128    -345.761
  C      362.761     458.165    -346.614
  O      361.453     457.563    -346.847
  C      362.721     458.815    -345.233
  O      362.288     460.171    -345.400
  C      361.627     458.040    -344.515
  O      361.113     458.748    -343.394
  C      360.647     457.827    -345.676
  N      355.708     456.538    -345.447
  C      356.332     457.717    -345.710
  N      357.647     457.983    -345.732
  C      358.359     456.861    -345.479
  C      357.869     455.596    -345.183
  C      356.475     455.451    -345.167
  N      355.848     454.266    -344.862
  N      358.905     454.721    -344.923
  C      360.007     455.452    -345.079
  N      359.720     456.732    -345.432
  O      364.782     454.386    -344.212
  O      365.262     454.170    -346.715
  H      360.300     458.288    -343.095
  H      365.007     453.443    -344.290
  H      355.675     458.550    -345.933
  H      361.018     455.092    -344.914
  H      360.035     458.727    -345.876
  H      362.023     457.081    -344.175
  H      363.665     458.779    -344.682
  H      362.900     458.941    -347.384
  H      363.781     456.646    -347.765
  H      354.830     454.264    -344.840
  H      356.397     453.473    -344.605
  H      364.858     457.579    -346.753
  P      363.407     461.242    -345.808
  C      363.180     462.427    -343.510
  O      363.135     462.545    -344.928
  O      362.975     461.675    -347.293
  O      364.798     460.703    -345.762
  H      363.754     461.993    -347.788
  H      363.685     463.323    -343.111
  H      363.724     461.538    -343.182
  H      362.165     462.395    -343.124
  H      368.256     456.555    -345.840
  H      367.155     456.201    -347.150
  H      367.808     454.901    -346.183

 3  4  5  6  7  8  9  10  11  12  22  25  29  30  31  32 0
 6-311+G(2d,p)
 ****
 33  36  37 0
 6-311+G(2d,p)
 ****
 1  2  13  14  15  16  17  18  19  20  21  23  24  26 0
 3-21G
 ****
 27  28  34  35  38  39  40  41  42  43  44  45  46  47  48 0
 3-21G
 ****


