%nproc=1
%NoSave
%Mem=1900MB
#P OB98/GEN NMR

erre ene a

0 1
  C      -31.448     -28.294      30.923
  O      -32.051     -27.034      31.211
  P      -31.989     -26.481      32.714
  C      -33.412     -26.874      34.913
  O      -33.309     -26.908      33.506
  C      -34.894     -26.751      35.311
  O      -35.361     -25.400      35.097
  C      -35.811     -27.674      34.509
  O      -35.900     -28.965      35.083
  C      -37.122     -26.906      34.530
  O      -37.779     -27.076      35.800
  C      -36.624     -25.451      34.368
  N      -36.398     -24.939      33.000
  C      -37.449     -24.352      32.298
  O      -38.589     -24.224      32.738
  N      -37.150     -23.889      31.043
  C      -35.905     -23.794      30.489
  O      -35.687     -23.315      29.384
  C      -34.808     -24.292      31.330
  C      -35.098     -24.840      32.513
  O      -32.140     -24.899      32.545
  O      -30.740     -26.849      33.456
  H      -38.601     -26.555      35.771
  H      -31.326     -24.447      32.835
  H      -37.914     -23.524      30.490
  H      -33.798     -24.194      30.954
  H      -34.294     -25.212      33.144
  H      -37.313     -24.752      34.859
  H      -37.811     -27.285      33.778
  H      -35.473     -27.731      33.469
  H      -34.985     -26.976      36.381
  H      -32.846     -26.035      35.326
  H      -32.981     -27.787      35.334
  P      -35.047     -30.172      34.468
  C      -35.473     -32.007      32.723
  O      -36.024     -30.905      33.426
  O      -34.365     -31.061      35.454
  O      -33.999     -29.435      33.498
  H      -33.137     -29.299      33.955
  H      -36.275     -32.510      32.177
  H      -35.019     -32.718      33.421
  H      -34.724     -31.653      32.011
  H      -31.574     -28.521      29.885
  H      -31.914     -29.055      31.513
  H      -30.404     -28.251      31.155

 3  4  5  6  7  8  9  10  11  12  13  23  28  29  30  31  32 0
 6-311+G(2d,p)
 ****
 33  34 0
 6-311+G(2d,p)
 ****
 1  2  14  15  16  17  18  19  20  21  22  24  25  26  27 0
 3-21G
 ****
 35  36  37  38  39  40  41  42  43  44  45 0
 3-21G
 ****


