%nproc=1
%NoSave
%Mem=1900MB
#P OB98/GEN NMR

erre ene a

0 1
  C      156.712    -307.431     264.248
  O      158.038    -306.904     264.123
  P      158.223    -305.646     263.135
  C      156.271    -303.987     262.652
  O      157.188    -304.511     263.605
  C      155.742    -302.628     263.098
  O      154.995    -302.740     264.328
  C      156.828    -301.595     263.391
  O      157.323    -301.007     262.195
  C      156.053    -300.578     264.212
  O      155.331    -299.690     263.345
  C      155.077    -301.465     265.009
  N      155.407    -299.504     269.676
  C      154.906    -298.947     268.515
  N      154.393    -297.700     268.618
  N      154.902    -299.558     267.358
  C      155.420    -300.811     267.411
  C      155.950    -301.474     268.495
  C      155.972    -300.774     269.766
  O      156.434    -301.206     270.818
  N      156.368    -302.738     268.161
  C      156.065    -302.850     266.878
  N      155.502    -301.704     266.376
  O      157.591    -306.173     261.761
  O      159.638    -305.210     262.970
  H      154.825    -300.247     262.716
  H      157.999    -305.708     261.007
  H      155.388    -298.988     270.537
  H      156.230    -303.737     266.280
  H      154.068    -301.037     265.031
  H      156.705    -299.951     264.835
  H      154.297    -297.203     269.492
  H      157.631    -302.035     263.998
  H      153.988    -297.292     267.783
  H      155.068    -302.249     262.318
  H      155.435    -304.680     262.526
  H      156.772    -303.914     261.678
  P      158.868    -301.265     261.837
  C      160.160    -303.221     260.725
  O      158.924    -302.743     261.222
  O      159.558    -301.414     263.276
  O      159.501    -300.181     261.023
  H      160.487    -301.132     263.234
  H      160.983    -302.968     261.396
  H      160.347    -302.792     259.732
  H      160.104    -304.312     260.635
  H      156.719    -308.258     264.927
  H      156.367    -307.760     263.290
  H      156.059    -306.669     264.620

 3  4  5  6  7  8  9  10  11  12  23  26  30  31  33  0
 6-311+G(2d,p)
 ****
 35  36  37  38 0
 6-311+G(2d,p)
 ****
 1  2  13  14  15  16  17  18  19  20  21  22  24  25  27  28  29 0
 3-21G
 ****
 32  34  39  40  41  42  43  44  45  46  47  48  49 0
 3-21G
 ****


