%nproc=1
%NoSave
%Mem=1900MB
#P OB98/GEN NMR

erre ene a

0 1
  C       22.871     105.109    -263.479
  O       21.740     104.340    -263.831
  H       23.619     104.451    -263.030
  H       22.585     105.866    -262.744
  H       23.306     105.589    -264.360
  P       20.650     105.035    -264.778
  C       20.306     103.096    -266.461
  O       20.825     104.398    -266.243
  C       20.768     102.560    -267.817
  O       20.321     103.471    -268.854
  C       22.291     102.421    -267.943
  O       22.587     101.236    -268.685
  C       22.691     103.644    -268.747
  O       23.912     103.456    -269.459
  C       21.472     103.828    -269.644
  N       20.120     106.679    -273.573
  C       20.015     105.315    -273.379
  N       19.475     104.601    -274.390
  N       20.406     104.705    -272.292
  C       20.894     105.550    -271.352
  C       21.055     106.913    -271.424
  C       20.646     107.573    -272.644
  O       20.735     108.773    -272.882
  N       21.618     107.407    -270.273
  C       21.796     106.344    -269.511
  N       21.367     105.197    -270.119
  O       21.211     106.524    -264.946
  O       19.252     105.035    -264.253
  H       23.938     104.120    -270.182
  H       20.589     107.159    -264.543
  H       19.817     107.096    -274.435
  H       22.236     106.349    -268.523
  H       21.499     103.178    -270.526
  H       22.818     104.503    -268.076
  H       19.109     105.011    -275.235
  H       22.799     102.381    -266.977
  H       19.353     103.603    -274.258
  H       20.270     101.601    -268.001
  H       19.213     103.140    -266.441
  H       20.651     102.430    -265.662
  P       23.132      99.975    -267.856
  C       20.842      98.851    -267.408
  O       21.977      99.495    -266.848
  O       24.231     100.621    -266.889
  O       23.720      98.900    -268.709
  H       25.125     100.369    -267.187
  H       20.160      98.588    -266.627
  H       21.152      97.966    -267.924
  H       20.359      99.514    -268.095

 6  7  8  9  10  11  12  13  14  15  26  29  33  34 0
 6-311+G(2d,p)
 ****
 36  38  39  40  41 0
 6-311+G(2d,p)
 ****
 1  2  3  4  5  16  17  18  19  20  21  22  23  24  25 0
 3-21G
 ****
 27  28  30  31  32  35  37  42  43  44  45  46  47 0
 3-21G
 ****
 48  49 0
 3-21G
 ****


