%nproc=1
%NoSave
%Mem=1900MB
#P OB98/GEN NMR

erre ene a

0 1
  C      259.988     283.769    -102.884
  O      260.790     284.874    -103.240
  H      260.595     283.068    -102.309
  H      259.629     283.265    -103.787
  H      259.137     284.078    -102.272
  P      260.081     286.194    -103.804
  C      260.752     287.872    -101.959
  O      260.947     287.446    -103.301
  C      261.991     288.609    -101.438
  O      263.076     287.656    -101.286
  C      262.468     289.677    -102.428
  O      263.142     290.749    -101.776
  C      263.464     288.915    -103.286
  O      264.412     289.764    -103.933
  C      264.085     287.966    -102.262
  N      268.182     285.382    -103.848
  C      268.075     286.711    -103.485
  N      269.211     287.447    -103.551
  N      266.954     287.273    -103.116
  C      265.887     286.439    -103.166
  C      265.866     285.109    -103.530
  C      267.120     284.492    -103.905
  O      267.266     283.327    -104.257
  N      264.595     284.596    -103.465
  C      263.849     285.607    -103.070
  N      264.593     286.741    -102.850
  O      258.752     286.317    -102.917
  O      259.765     286.183    -105.269
  H      264.663     290.458    -103.297
  H      258.085     286.852    -103.378
  H      269.075     284.996    -104.097
  H      262.779     285.568    -102.911
  H      264.917     288.452    -101.737
  H      262.911     288.392    -104.070
  H      270.037     287.102    -104.014
  H      261.660     290.079    -103.032
  H      269.089     288.461    -103.593
  H      261.790     289.021    -100.442
  H      260.559     286.975    -101.368
  H      259.866     288.505    -101.887
  P      263.454     292.078    -102.614
  C      261.756     293.735    -101.438
  O      263.083     293.366    -101.746
  O      262.350     292.067    -103.770
  O      264.846     292.148    -103.166
  H      262.773     291.971    -104.643
  H      261.762     294.628    -100.849
  H      261.286     292.947    -100.887
  H      261.215     293.909    -102.344

 6  7  8  9  10  11  12  13  14  15  26  29  33  34 0
 6-311+G(2d,p)
 ****
 36  38  39  40  41 0
 6-311+G(2d,p)
 ****
 1  2  3  4  5  16  17  18  19  20  21  22  23  24  25 0
 3-21G
 ****
 27  28  30  31  32  35  37  42  43  44  45  46  47 0
 3-21G
 ****
 48  49 0
 3-21G
 ****


