%nproc=1
%NoSave
%Mem=1900MB
#P OB98/GEN NMR

erre ene a

0 1
  C     -335.085     366.508    -249.034
  O     -334.383     366.680    -250.245
  H     -335.522     367.467    -248.743
  H     -334.391     366.189    -248.251
  H     -335.890     365.773    -249.133
  P     -334.040     365.390    -251.125
  C     -332.680     363.237    -250.681
  O     -332.794     364.636    -250.445
  C     -331.317     362.700    -250.246
  O     -331.135     362.924    -248.830
  C     -331.176     361.190    -250.478
  O     -330.729     360.838    -251.773
  C     -330.156     360.802    -249.416
  O     -328.812     360.938    -249.904
  C     -330.418     361.805    -248.289
  N     -330.245     359.496    -243.725
  C     -329.209     359.755    -244.606
  N     -327.987     359.306    -244.239
  N     -329.374     360.380    -245.747
  C     -330.662     360.675    -246.023
  C     -331.776     360.454    -245.234
  C     -331.577     359.827    -243.943
  O     -332.451     359.599    -243.122
  N     -332.928     360.853    -245.866
  C     -332.523     361.238    -247.062
  N     -331.146     361.223    -247.170
  O     -333.383     366.009    -252.454
  O     -335.209     364.515    -251.469
  H     -328.201     360.705    -249.177
  H     -333.584     365.434    -253.218
  H     -330.056     359.042    -242.854
  H     -333.167     361.575    -247.864
  H     -329.480     362.199    -247.877
  H     -330.279     359.756    -249.123
  H     -327.822     358.748    -243.416
  H     -332.115     360.677    -250.254
  H     -327.242     359.307    -244.938
  H     -330.522     363.261    -250.764
  H     -332.813     363.095    -251.759
  H     -333.484     362.697    -250.178
  P     -331.141     359.438    -252.432
  C     -331.044     356.926    -251.669
  O     -330.996     358.295    -251.330
  O     -329.932     359.137    -253.441
  O     -332.466     359.425    -253.126
  H     -330.172     359.391    -254.349
  H     -330.927     356.335    -250.785
  H     -330.255     356.701    -252.355
  H     -331.987     356.704    -252.124

 6  7  8  9  10  11  12  13  14  15  26  29  33  34 0
 6-311+G(2d,p)
 ****
 36  38  39  40  41 0
 6-311+G(2d,p)
 ****
 1  2  3  4  5  16  17  18  19  20  21  22  23  24  25 0
 3-21G
 ****
 27  28  30  31  32  35  37  42  43  44  45  46  47 0
 3-21G
 ****
 48  49 0
 3-21G
 ****


