%nproc=1
%NoSave
%Mem=1900MB
#P OB98/GEN NMR

erre ene a

0 1
  C      106.948     378.572     -79.450
  O      107.733     379.587     -78.815
  P      108.490     379.251     -77.449
  C      110.766     379.952     -78.458
  O      110.037     378.956     -77.749
  C      112.075     379.358     -78.993
  O      111.837     378.142     -79.745
  C      112.786     380.287     -79.971
  O      113.352     381.459     -79.436
  C      113.723     379.331     -80.696
  O      114.921     379.101     -79.960
  C      112.865     378.040     -80.756
  N      112.287     377.805     -82.080
  C      113.097     377.142     -82.996
  O      114.256     376.808     -82.753
  N      112.542     376.919     -84.224
  C      111.304     377.303     -84.634
  O      110.866     377.090     -85.754
  C      110.500     378.019     -83.624
  C      111.016     378.233     -82.411
  O      107.814     378.264     -76.554
  O      108.559     380.694     -76.723
  H      115.364     379.961     -79.844
  H      108.378     380.558     -75.777
  H      113.120     376.430     -84.900
  H      109.506     378.344     -83.914
  H      110.434     378.756     -81.660
  H      113.473     377.166     -80.494
  H      114.013     379.724     -81.680
  H      112.044     380.622     -80.709
  H      112.712     379.102     -78.150
  H      110.969     380.793     -77.796
  H      110.140     380.340     -79.271
  P      112.563     382.853     -79.344
  C      112.434     382.758     -76.751
  O      111.735     382.869     -77.967
  O      111.865     383.328     -80.572
  O      113.761     383.877     -79.014
  H      113.559     384.734     -79.418
  H      111.715     382.774     -75.926
  H      113.125     383.590     -76.629
  H      112.988     381.813     -76.719
  H      106.515     378.965     -80.346
  H      106.170     378.256     -78.787
  H      107.572     377.737     -79.691

 3  4  5  6  7  8  9  10  11  12  13  23  28  29  30  31  32 0
 6-311+G(2d,p)
 ****
 33  34 0
 6-311+G(2d,p)
 ****
 1  2  14  15  16  17  18  19  20  21  22  24  25  26  27 0
 3-21G
 ****
 35  36  37  38  39  40  41  42  43  44  45 0
 3-21G
 ****


