%nproc=1
%NoSave
%Mem=1900MB
#P OB98/GEN NMR

erre ene a

0 1
  C      368.073     205.219     228.242
  O      367.114     206.244     228.480
  P      367.214     207.568     227.574
  C      368.602     208.866     229.357
  O      368.537     208.343     228.034
  C      369.864     209.705     229.532
  O      371.036     208.876     229.397
  C      370.032     210.817     228.505
  O      369.176     211.912     228.785
  C      371.517     211.117     228.657
  O      371.739     211.939     229.822
  C      372.104     209.713     228.877
  N      376.296     207.918     226.540
  C      376.114     208.478     227.761
  N      374.977     208.949     228.300
  C      373.943     208.791     227.452
  C      373.983     208.257     226.174
  C      375.230     207.800     225.720
  N      375.411     207.230     224.476
  N      372.728     208.282     225.595
  C      371.944     208.816     226.512
  N      372.629     209.127     227.654
  O      366.031     208.483     228.139
  O      367.090     207.332     226.102
  H      372.700     212.110     229.874
  H      365.629     209.016     227.427
  H      377.001     208.556     228.380
  H      370.884     208.981     226.393
  H      372.915     209.709     229.619
  H      371.943     211.648     227.797
  H      369.829     210.442     227.492
  H      369.856     210.127     230.548
  H      368.625     208.039     230.073
  H      376.361     207.068     224.173
  H      374.648     207.283     223.812
  H      367.704     209.461     229.548
  P      368.684     212.800     227.543
  C      370.258     214.611     228.468
  O      369.888     213.855     227.331
  O      367.545     213.703     228.218
  O      368.278     212.028     226.335
  H      367.845     214.105     229.049
  H      371.107     215.241     228.202
  H      370.556     213.949     229.288
  H      369.432     215.250     228.788
  H      367.894     204.401     228.908
  H      369.057     205.605     228.408
  H      367.989     204.880     227.231

 3  4  5  6  7  8  9  10  11  12  22  25  29  30  31  32 0
 6-311+G(2d,p)
 ****
 33  36  37 0
 6-311+G(2d,p)
 ****
 1  2  13  14  15  16  17  18  19  20  21  23  24  26 0
 3-21G
 ****
 27  28  34  35  38  39  40  41  42  43  44  45  46  47  48 0
 3-21G
 ****


