%nproc=1
%NoSave
%Mem=1900MB
#P OB98/GEN NMR

erre ene a

0 1
  C      264.851     185.305     -41.943
  O      265.485     185.484     -43.192
  H      265.615     185.297     -41.162
  H      264.326     184.348     -41.929
  H      264.150     186.117     -41.736
  P      264.587     185.823     -44.475
  C      263.782     187.993     -45.613
  O      264.702     187.409     -44.702
  C      263.889     189.520     -45.591
  O      263.338     190.011     -44.334
  C      265.327     190.047     -45.697
  O      265.271     191.312     -46.368
  C      265.694     190.240     -44.239
  O      266.815     191.082     -44.094
  C      264.371     190.771     -43.680
  N      264.297     190.664     -42.224
  C      264.497     191.834     -41.504
  O      264.758     192.916     -42.032
  N      264.432     191.722     -40.142
  C      264.254     190.561     -39.447
  O      264.237     190.513     -38.224
  C      264.091     189.346     -40.261
  C      264.117     189.451     -41.591
  O      263.192     185.298     -44.446
  O      265.422     185.235     -45.708
  H      267.581     190.716     -44.586
  H      264.816     184.957     -46.420
  H      264.565     192.563     -39.605
  H      263.957     188.408     -39.739
  H      263.999     188.574     -42.219
  H      264.234     191.826     -43.948
  H      265.945     189.280     -43.774
  H      265.998     189.364     -46.222
  H      263.259     189.927     -46.391
  H      262.774     187.687     -45.317
  H      263.983     187.622     -46.623
  P      265.798     191.504     -47.871
  C      265.202     190.648     -50.227
  O      264.777     190.775     -48.872
  O      267.228     191.124     -48.073
  O      265.575     193.059     -48.185
  H      266.228     193.357     -48.844
  H      264.443     190.149     -50.793
  H      266.107     190.079     -50.265
  H      265.374     191.620     -50.639

 6  7  8  9  10  11  12  13  14  15  16  26  31  32  33  34  35 0
 6-311+G(2d,p)
 ****
 36  37 0
 6-311+G(2d,p)
 ****
 1  2  3  4  5  17  18  19  20  21  22  23  24  25 0
 3-21G
 ****
 27  28  29  30  38  39  40  41  42  43  44  45 0
 3-21G
 ****


