%nproc=1
%NoSave
%Mem=1900MB
#P OB98/GEN NMR

erre ene a

0 1
  C       22.465     120.110    -159.697
  O       23.505     119.738    -158.815
  H       22.882     120.482    -160.636
  H       21.852     119.231    -159.909
  H       21.835     120.878    -159.238
  P       24.508     120.904    -158.356
  C       22.692     121.360    -156.559
  O       23.637     121.913    -157.461
  C       22.281     122.401    -155.524
  O       21.128     121.944    -154.788
  C       23.343     122.712    -154.475
  O       24.326     123.609    -154.969
  C       22.490     123.359    -153.394
  O       22.211     124.726    -153.747
  C       21.203     122.523    -153.459
  N       20.360     121.383    -148.543
  C       20.251     122.540    -149.233
  N       20.472     122.761    -150.545
  C       20.825     121.621    -151.161
  C       20.959     120.364    -150.599
  C       20.713     120.263    -149.221
  N       20.895     119.085    -148.512
  N       21.352     119.441    -151.550
  C       21.475     120.138    -152.660
  N       21.161     121.457    -152.478
  O       24.756     121.715    -159.717
  O       25.787     120.438    -157.749
  H       21.671     125.096    -153.022
  H       25.590     121.413    -160.122
  H       19.949     123.405    -148.652
  H       21.790     119.732    -153.613
  H       20.305     123.135    -153.324
  H       22.978     123.370    -152.414
  H       23.793     121.796    -154.076
  H       21.987     123.313    -156.062
  H       23.137     120.499    -156.049
  H       21.149     119.231    -147.539
  H       21.407     118.371    -149.014
  H       21.819     121.024    -157.129
  P       25.747     123.641    -154.226
  C       26.884     122.336    -156.148
  O       26.570     122.368    -154.763
  O       25.372     123.245    -152.722
  O       26.464     124.945    -154.279
  H       25.687     123.938    -152.110
  H       27.429     121.442    -156.370
  H       27.480     123.188    -156.398
  H       25.979     122.353    -156.719

 6  7  8  9  10  11  12  13  14  15  25  28  32  33  34  35 0
 6-311+G(2d,p)
 ****
 36  39  40 0
 6-311+G(2d,p)
 ****
 1  2  3  4  5  16  17  18  19  20  21  22  23  24 0
 3-21G
 ****
 26  27  29  30  31  37  38  41  42  43  44  45  46  47  48 0
 3-21G
 ****


