%nproc=1
%NoSave
%Mem=1900MB
#P OB98/GEN NMR

erre ene a

0 1
  C      467.584    1239.453     820.895
  O      466.388    1239.901     821.507
  H      467.500    1238.370     820.734
  H      468.424    1239.660     821.550
  H      467.729    1239.943     819.927
  P      466.285    1241.477     821.791
  C      466.264    1241.533     824.391
  O      467.000    1241.731     823.207
  C      467.191    1241.657     825.613
  O      467.731    1243.011     825.653
  C      466.483    1241.423     826.972
  O      467.428    1240.872     827.913
  C      466.146    1242.842     827.381
  O      465.796    1242.901     828.741
  C      467.394    1243.568     826.952
  N      467.292    1247.887     829.665
  C      467.527    1246.596     830.028
  N      467.540    1245.491     829.242
  C      467.322    1245.844     827.966
  C      467.036    1247.092     827.456
  C      467.031    1248.143     828.373
  N      466.745    1249.451     828.034
  N      466.820    1247.031     826.074
  C      466.941    1245.764     825.767
  N      467.246    1245.005     826.889
  O      464.723    1241.696     822.122
  O      466.743    1242.379     820.681
  H      466.555    1242.680     829.311
  H      464.243    1241.925     821.319
  H      467.761    1246.411     831.082
  H      466.814    1245.321     824.783
  H      468.245    1243.359     827.602
  H      465.260    1243.230     826.824
  H      465.607    1240.741     826.888
  H      468.045    1240.971     825.497
  H      465.816    1240.537     824.374
  H      465.478    1242.283     824.463
  H      466.737    1250.148     828.760
  H      466.508    1249.679     827.077
  P      467.467    1239.301     828.128
  C      466.071    1238.479     830.169
  O      466.097    1238.793     828.798
  O      468.501    1239.153     829.361
  O      467.947    1238.486     826.976
  H      469.133    1238.451     829.184
  H      465.087    1238.160     830.443
  H      466.337    1239.345     830.738
  H      466.769    1237.693     830.368

 6  7  8  9  10  11  12  13  14  15  25  28  32  33  34  35 0
 6-311+G(2d,p)
 ****
 36  37  40 0
 6-311+G(2d,p)
 ****
 1  2  3  4  5  16  17  18  19  20  21  22  23  24 0
 3-21G
 ****
 26  27  29  30  31  38  39 41  42  43  44  45  46  47  48 0
 3-21G
 ****


