%nproc=1
%NoSave
%Mem=1900MB
#P OB98/GEN NMR

erre ene a

0 1
  C      -19.914      73.068     233.029
  O      -18.860      73.124     233.967
  H      -20.816      72.715     233.536
  H      -19.667      72.365     232.230
  H      -20.114      74.056     232.608
  P      -17.468      73.782     233.528
  C      -16.399      76.120     233.767
  O      -17.593      75.356     233.803
  C      -16.546      77.401     234.595
  O      -17.640      78.192     234.037
  C      -16.879      77.159     236.082
  O      -16.313      78.250     236.822
  C      -18.395      77.236     236.053
  O      -18.958      77.315     237.337
  C      -18.565      78.442     235.118
  N      -19.913      78.650     234.604
  C      -20.911      78.974     235.519
  O      -20.736      79.103     236.729
  N      -22.164      79.151     234.992
  C      -22.505      79.054     233.675
  O      -23.638      79.254     233.259
  C      -21.409      78.701     232.759
  C      -20.183      78.524     233.256
  O      -16.978      73.417     232.167
  O      -16.448      73.304     234.669
  H      -15.906      72.567     234.333
  H      -19.934      77.240     237.264
  H      -22.898      79.391     235.639
  H      -21.647      78.604     231.709
  H      -19.354      78.273     232.603
  H      -18.230      79.355     235.622
  H      -18.806      76.331     235.600
  H      -16.480      76.214     236.461
  H      -15.634      78.000     234.488
  H      -16.190      76.379     232.723
  H      -15.573      75.515     234.155
  P      -14.942      78.139     237.650
  C      -12.876      77.377     236.288
  O      -13.728      78.459     236.650
  O      -14.785      76.853     238.392
  O      -14.953      79.387     238.653
  H      -14.411      79.180     239.438
  H      -12.116      77.729     235.622
  H      -13.452      76.617     235.802
  H      -12.421      76.972     237.167

 6  7  8  9  10  11  12  13  14  15  16  27  31  32  33  34  35 0
 6-311+G(2d,p)
 ****
 36  37 0
 6-311+G(2d,p)
 ****
 1  2  3  4  5  17  18  19  20  21  22  23  24  25 0
 3-21G
 ****
 26  28  29  30  38  39  40  41  42  43  44  45 0
 3-21G
 ****


