%nproc=1
%NoSave
%Mem=1900MB
#P OB98/GEN NMR

erre ene a

0 1
  C     1088.518     975.403    -388.751
  O     1089.385     974.709    -389.624
  P     1088.694     973.708    -390.696
  C     1090.731     973.744    -392.296
  O     1089.894     972.972    -391.451
  C     1091.204     972.911    -393.496
  O     1092.145     971.900    -393.055
  C     1090.074     972.161    -394.270
  O     1090.429     972.123    -395.649
  C     1090.104     970.764    -393.656
  O     1089.488     969.793    -394.482
  C     1091.607     970.604    -393.451
  N     1092.360     965.688    -392.534
  C     1092.000     966.303    -393.718
  N     1091.838     965.534    -394.775
  N     1091.755     967.591    -393.806
  C     1091.973     968.252    -392.633
  C     1092.311     967.732    -391.404
  C     1092.598     966.332    -391.304
  O     1093.001     965.729    -390.328
  N     1092.341     968.730    -390.422
  C     1092.092     969.836    -391.100
  N     1091.883     969.597    -392.429
  O     1088.089     974.695    -391.778
  O     1087.679     972.750    -390.112
  H     1089.862     969.864    -395.378
  H     1087.125     974.894    -391.576
  H     1092.552     964.706    -392.510
  H     1092.033     970.807    -390.650
  H     1092.123     970.298    -394.367
  H     1089.597     970.779    -392.688
  H     1092.034     964.549    -394.796
  H     1089.103     972.657    -394.141
  H     1091.571     965.963    -395.662
  H     1091.745     973.580    -394.186
  H     1091.634     974.045    -391.772
  H     1090.203     974.676    -392.635
  P     1089.288     972.260    -396.734
  C     1090.013     974.712    -397.046
  O     1089.640     973.508    -397.669
  O     1088.022     972.755    -395.909
  O     1088.957     970.990    -397.481
  H     1087.209     972.414    -396.289
  H     1090.608     975.340    -397.741
  H     1090.611     974.554    -396.151
  H     1089.123     975.274    -396.766
  H     1089.093     976.026    -388.098
  H     1087.958     974.700    -388.171
  H     1087.847     976.009    -389.323

 3  4  5  6  7  8  9  10  11  12  23  26  30  31 0
 6-311+G(2d,p)
 ****
 33  35  36  37  38 0
 6-311+G(2d,p)
 ****
 1  2  13  14  15  16  17  18  19  20  21  22  24  25 0
 3-21G
 ****
 27  28  29  32  34  39  40  41  42  43  44  45  46  47  48  49 0
 3-21G
 ****


