%nproc=1
%NoSave
%Mem=1900MB
#P OB98/GEN NMR

erre ene a

0 1
  C     -239.667     155.270     -42.139
  O     -239.411     156.545     -42.689
  H     -239.638     155.345     -41.048
  H     -238.903     154.561     -42.464
  H     -240.657     154.918     -42.443
  P     -239.405     156.656     -44.289
  C     -240.545     158.986     -44.278
  O     -239.396     158.228     -44.629
  C     -240.282     160.479     -44.479
  O     -239.296     160.919     -43.504
  C     -239.743     160.831     -45.873
  O     -240.312     162.080     -46.284
  C     -238.257     161.024     -45.628
  O     -237.650     161.844     -46.620
  C     -238.277     161.634     -44.229
  N     -233.631     163.558     -44.119
  C     -234.732     163.916     -44.873
  N     -234.573     164.943     -45.736
  N     -235.889     163.315     -44.791
  C     -235.914     162.322     -43.869
  C     -234.893     161.865     -43.071
  C     -233.610     162.524     -43.187
  O     -232.592     162.238     -42.565
  N     -235.309     160.812     -42.293
  C     -236.577     160.636     -42.621
  N     -236.988     161.531     -43.571
  O     -240.884     156.200     -44.701
  O     -238.355     155.857     -44.985
  H     -236.782     162.140     -46.276
  H     -240.885     155.778     -45.581
  H     -232.759     164.047     -44.230
  H     -237.231     159.883     -42.206
  H     -238.545     162.699     -44.242
  H     -237.747     160.054     -45.625
  H     -233.720     165.474     -45.830
  H     -239.948     160.069     -46.627
  H     -235.372     165.231     -46.290
  H     -241.205     161.030     -44.262
  H     -240.789     158.798     -43.226
  H     -241.388     158.672     -44.902
  P     -241.360     162.053     -47.497
  C     -242.625     164.161     -46.661
  O     -241.921     163.540     -47.726
  O     -242.613     161.277     -46.870
  O     -240.853     161.364     -48.720
  H     -242.677     160.387     -47.260
  H     -242.934     165.140     -46.961
  H     -241.986     164.235     -45.806
  H     -243.486     163.576     -46.413

 6  7  8  9  10  11  12  13  14  15  26  29  33  34 0
 6-311+G(2d,p)
 ****
 36  38  39  40  41 0
 6-311+G(2d,p)
 ****
 1  2  3  4  5  16  17  18  19  20  21  22  23  24  25 0
 3-21G
 ****
 27  28  30  31  32  35  37  42  43  44  45  46  47 0
 3-21G
 ****
 48  49 0
 3-21G
 ****


