%nproc=1
%NoSave
%Mem=1900MB
#P OB98/GEN NMR

erre ene a

0 1
  C      205.457    -237.668     -16.107
  O      205.433    -238.860     -16.875
  P      204.657    -238.824     -18.281
  C      202.459    -239.747     -17.246
  O      203.092    -238.687     -17.949
  C      201.053    -240.002     -17.793
  O      200.297    -238.760     -17.747
  C      201.015    -240.509     -19.244
  O      199.906    -241.409     -19.337
  C      200.751    -239.231     -20.021
  O      200.291    -239.443     -21.344
  C      199.776    -238.535     -19.075
  N      197.750    -235.044     -22.216
  C      197.643    -236.393     -22.177
  N      198.205    -237.255     -21.304
  C      198.937    -236.597     -20.392
  C      199.157    -235.228     -20.319
  C      198.522    -234.437     -21.285
  N      198.643    -233.061     -21.327
  N      199.990    -234.926     -19.260
  C      200.272    -236.091     -18.708
  N      199.641    -237.124     -19.345
  O      204.789    -240.329     -18.804
  O      205.190    -237.832     -19.271
  H      199.873    -238.628     -21.688
  H      204.932    -240.355     -19.769
  H      197.021    -236.837     -22.951
  H      200.927    -236.235     -17.863
  H      198.774    -238.983     -19.119
  H      201.687    -238.661     -20.097
  H      201.927    -241.033     -19.545
  H      200.548    -240.717     -17.129
  H      202.373    -239.480     -16.187
  H      198.316    -232.607     -22.171
  H      199.373    -232.646     -20.765
  H      203.077    -240.648     -17.314
  P      200.082    -242.773     -20.169
  C      199.616    -241.730     -22.471
  O      200.592    -242.279     -21.611
  O      198.555    -243.139     -20.477
  O      200.861    -243.851     -19.496
  H      198.072    -242.381     -20.857
  H      200.111    -241.347     -23.369
  H      199.096    -240.897     -21.974
  H      198.895    -242.498     -22.763
  H      206.004    -237.837     -15.203
  H      204.455    -237.377     -15.869
  H      205.930    -236.890     -16.670

 3  4  5  6  7  8  9  10  11  12  22  25  29  30  31  32 0
 6-311+G(2d,p)
 ****
 33  36  37 0
 6-311+G(2d,p)
 ****
 1  2  13  14  15  16  17  18  19  20  21  23  24  26 0
 3-21G
 ****
 27  28  34  35  38  39  40  41  42  43  44  45  46  47  48 0
 3-21G
 ****


