%nproc=1
%NoSave
%Mem=1900MB
#P OB98/GEN NMR

erre ene a

0 1
  C       95.531    -716.869       3.322
  O       96.096    -717.650       4.387
  P       95.071    -718.161       5.511
  C       95.508    -720.710       5.230
  O       95.624    -719.558       6.068
  C       96.531    -721.791       5.593
  O       97.714    -721.632       4.757
  C       97.022    -721.763       7.053
  O       97.195    -723.102       7.499
  C       98.401    -721.114       6.955
  O       99.226    -721.451       8.068
  C       98.857    -721.688       5.617
  N      103.895    -721.426       5.046
  C      103.118    -722.415       5.615
  N      103.778    -723.482       6.148
  N      101.815    -722.382       5.679
  C      101.279    -721.259       5.104
  C      101.943    -720.209       4.511
  C      103.386    -720.260       4.475
  O      104.131    -719.398       4.037
  N      101.066    -719.276       4.036
  C       99.870    -719.745       4.360
  N       99.957    -720.938       5.021
  O       93.776    -718.558       4.662
  O       94.748    -717.131       6.561
  H       99.290    -722.423       8.065
  H       92.988    -718.071       5.000
  H      104.901    -721.503       5.044
  H       98.926    -719.240       4.161
  H       99.178    -722.730       5.717
  H       98.272    -720.035       6.915
  H      104.777    -723.611       6.061
  H       96.349    -721.231       7.737
  H      103.224    -724.246       6.516
  H       96.085    -722.769       5.358
  H       95.669    -720.400       4.192
  H       94.491    -721.105       5.315
  P       96.683    -723.434       9.001
  C       94.958    -725.181       8.066
  O       96.087    -724.932       8.913
  O       95.376    -722.527       9.143
  O       97.686    -723.188      10.052
  H       95.213    -722.298      10.073
  H       94.748    -724.346       7.393
  H       94.079    -725.367       8.707
  H       95.165    -726.077       7.477
  H       96.304    -716.587       2.638
  H       95.075    -715.990       3.727
  H       94.793    -717.448       2.807

 3  4  5  6  7  8  9  10  11  12  23  26  30  31  33  0
 6-311+G(2d,p)
 ****
 35  36  37  38 0
 6-311+G(2d,p)
 ****
 1  2  13  14  15  16  17  18  19  20  21  22  24  25  27  28  29 0
 3-21G
 ****
 32  34  39  40  41  42  43  44  45  46  47  48  49 0
 3-21G
 ****


