%nproc=1
%NoSave
%Mem=1900MB
#P OB98/GEN NMR

erre ene a

0 1
  C     -190.889     320.141    -196.089
  O     -190.283     321.435    -196.100
  P     -188.843     321.562    -195.391
  C     -187.850     322.158    -197.723
  O     -187.731     321.386    -196.534
  C     -186.529     322.182    -198.486
  O     -185.497     322.828    -197.719
  C     -185.971     320.804    -198.817
  O     -186.612     320.235    -199.947
  C     -184.519     321.138    -199.130
  O     -184.406     321.599    -200.487
  C     -184.226     322.283    -198.146
  N     -180.374     323.345    -195.025
  C     -180.829     324.029    -196.134
  N     -180.180     325.172    -196.442
  N     -181.827     323.628    -196.878
  C     -182.401     322.484    -196.434
  C     -182.043     321.714    -195.351
  C     -180.915     322.152    -194.556
  O     -180.453     321.568    -193.583
  N     -182.867     320.629    -195.213
  C     -183.739     320.753    -196.193
  N     -183.489     321.858    -196.972
  O     -188.733     320.199    -194.559
  O     -188.701     322.765    -194.520
  H     -184.623     320.840    -201.066
  H     -188.147     320.325    -193.788
  H     -179.598     323.693    -194.493
  H     -184.567     320.082    -196.380
  H     -183.668     323.096    -198.625
  H     -183.856     320.276    -199.029
  H     -179.451     325.577    -195.874
  H     -186.022     320.143    -197.941
  H     -180.520     325.708    -197.231
  H     -186.681     322.753    -199.413
  H     -188.143     323.179    -197.472
  H     -188.652     321.738    -198.339
  P     -187.350     318.825    -199.741
  C     -189.718     319.558    -200.506
  O     -188.880     319.183    -199.433
  O     -186.777     318.319    -198.335
  O     -187.111     317.838    -200.835
  H     -186.777     317.344    -198.304
  H     -189.558     318.913    -201.377
  H     -189.524     320.599    -200.780
  H     -190.759     319.464    -200.191
  H     -191.835     320.186    -196.587
  H     -191.033     319.823    -195.077
  H     -190.253     319.445    -196.594

 3  4  5  6  7  8  9  10  11  12  23  26  30  31  33  0
 6-311+G(2d,p)
 ****
 35  36  37  38 0
 6-311+G(2d,p)
 ****
 1  2  13  14  15  16  17  18  19  20  21  22  24  25  27  28  29 0
 3-21G
 ****
 32  34  39  40  41  42  43  44  45  46  47  48  49 0
 3-21G
 ****


