%nproc=1
%NoSave
%Mem=1900MB
#P OB98/GEN NMR

erre ene a

0 1
  C      714.151     718.737     140.003
  O      712.912     719.403     140.075
  H      714.758     719.025     140.862
  H      714.673     719.028     139.088
  H      714.017     717.652     140.017
  P      711.706     718.900     139.153
  C      710.260     718.292     141.205
  O      710.867     717.831     140.010
  C      709.171     717.329     141.682
  O      708.068     717.338     140.739
  C      709.707     715.896     141.722
  O      709.040     715.103     142.707
  C      709.355     715.363     140.338
  O      709.302     713.939     140.285
  C      708.014     716.045     140.090
  N      705.167     714.543     136.147
  C      705.266     714.004     137.419
  N      704.509     712.898     137.656
  N      706.029     714.486     138.356
  C      706.772     715.541     137.949
  C      706.793     716.159     136.715
  C      705.900     715.633     135.692
  O      705.797     716.060     134.547
  N      707.695     717.183     136.676
  C      708.235     717.195     137.874
  N      707.698     716.224     138.694
  O      712.421     717.978     138.058
  O      710.887     719.978     138.509
  H      709.098     713.685     139.359
  H      711.888     717.934     137.247
  H      704.546     714.141     135.462
  H      709.004     717.884     138.210
  H      707.200     715.479     140.545
  H      710.136     715.686     139.644
  H      704.049     712.397     136.917
  H      710.787     715.862     141.910
  H      704.789     712.333     138.461
  H      708.767     717.660     142.646
  H      709.820     719.272     140.986
  H      711.016     718.434     141.983
  P      709.904     714.607     143.964
  C      709.059     716.047     145.988
  O      710.033     715.836     144.984
  O      711.385     714.435     143.367
  O      709.399     713.346     144.584
  H      711.588     713.483     143.258
  H      709.321     716.911     146.563
  H      709.017     715.191     146.629
  H      708.103     716.198     145.531

 6  7  8  9  10  11  12  13  14  15  26  29  33  34 0
 6-311+G(2d,p)
 ****
 36  38  39  40  41 0
 6-311+G(2d,p)
 ****
 1  2  3  4  5  16  17  18  19  20  21  22  23  24  25 0
 3-21G
 ****
 27  28  30  31  32  35  37  42  43  44  45  46  47 0
 3-21G
 ****
 48  49 0
 3-21G
 ****


