%nproc=1
%NoSave
%Mem=1900MB
#P OB98/GEN NMR

erre ene a

0 1
  C      369.726    -319.197      31.162
  O      369.202    -318.479      32.287
  P      368.852    -319.323      33.603
  C      371.100    -319.075      34.927
  O      370.252    -319.894      34.135
  C      371.101    -319.562      36.374
  O      371.676    -320.888      36.465
  C      371.925    -318.705      37.324
  O      371.253    -317.488      37.628
  C      372.095    -319.658      38.500
  O      370.917    -319.652      39.320
  C      372.236    -321.019      37.789
  N      373.611    -321.498      37.741
  C      374.181    -321.829      38.982
  O      373.587    -321.700      40.044
  N      375.474    -322.275      38.937
  C      376.245    -322.406      37.815
  O      377.396    -322.836      37.835
  C      375.607    -322.001      36.556
  C      374.341    -321.574      36.574
  O      368.117    -320.595      32.969
  O      368.045    -318.553      34.592
  H      368.494    -320.859      32.116
  H      370.242    -320.186      38.846
  H      375.899    -322.530      39.816
  H      376.192    -322.067      35.647
  H      373.856    -321.261      35.654
  H      371.631    -321.776      38.304
  H      372.933    -319.381      39.141
  H      372.902    -318.485      36.875
  H      370.060    -319.615      36.712
  H      370.745    -318.038      34.900
  H      372.105    -319.084      34.497
  P      372.174    -316.250      38.075
  C      372.717    -315.345      35.671
  O      373.177    -315.967      36.853
  O      373.106    -316.929      39.181
  O      371.403    -315.060      38.553
  H      373.436    -317.799      38.920
  H      373.573    -314.940      35.141
  H      372.017    -314.535      35.900
  H      372.222    -316.092      35.040
  H      369.913    -318.515      30.359
  H      369.016    -319.933      30.846
  H      370.640    -319.679      31.441

 3  4  5  6  7  8  9  10  11  12  13  24  28  29  30  31  32 0
 6-311+G(2d,p)
 ****
 33  34 0
 6-311+G(2d,p)
 ****
 1  2  14  15  16  17  18  19  20  21  22  23  25  26  27 0
 3-21G
 ****
 35  36  37  38  39  40  41  42  43  44  45 0
 3-21G
 ****


