%nproc=1
%NoSave
%Mem=1900MB
#P OB98/GEN NMR

erre ene a

0 1
  C      241.169     -52.875     386.690
  O      240.809     -54.221     386.460
  H      242.255     -52.783     386.604
  H      240.871     -52.577     387.698
  H      240.700     -52.221     385.952
  P      239.240     -54.560     386.450
  C      239.588     -56.370     384.623
  O      239.108     -56.076     385.929
  C      240.068     -57.817     384.538
  O      241.223     -57.984     385.415
  C      239.017     -58.859     384.957
  O      239.196     -60.022     384.141
  C      239.438     -59.208     386.378
  O      238.938     -60.474     386.801
  C      240.957     -59.139     386.236
  N      241.302     -61.276     390.780
  C      240.570     -61.644     389.667
  N      239.811     -62.754     389.780
  N      240.580     -60.983     388.540
  C      241.412     -59.911     388.557
  C      242.184     -59.439     389.591
  C      242.141     -60.166     390.844
  O      242.753     -59.878     391.866
  N      242.863     -58.307     389.219
  C      242.506     -58.096     387.965
  N      241.625     -59.046     387.518
  O      238.702     -53.689     385.218
  O      238.512     -54.255     387.714
  H      239.080     -60.547     387.767
  H      238.380     -52.825     385.534
  H      241.249     -61.813     391.627
  H      242.848     -57.280     387.343
  H      241.368     -60.021     385.728
  H      239.075     -58.444     387.078
  H      239.786     -63.341     390.600
  H      237.983     -58.510     384.888
  H      239.299     -63.065     388.962
  H      240.420     -58.009     383.517
  H      240.424     -55.700     384.393
  H      238.785     -56.200     383.897
  P      237.894     -60.703     383.506
  C      236.458     -58.580     383.067
  O      237.214     -59.646     382.511
  O      236.872     -60.738     384.739
  O      238.125     -62.066     382.942
  H      236.248     -61.480     384.632
  H      236.073     -57.967     382.279
  H      237.086     -57.991     383.703
  H      235.646     -58.979     383.638

 6  7  8  9  10  11  12  13  14  15  26  29  33  34 0
 6-311+G(2d,p)
 ****
 36  38  39  40  41 0
 6-311+G(2d,p)
 ****
 1  2  3  4  5  16  17  18  19  20  21  22  23  24  25 0
 3-21G
 ****
 27  28  30  31  32  35  37  42  43  44  45  46  47 0
 3-21G
 ****
 48  49 0
 3-21G
 ****


