%nproc=1
%NoSave
%Mem=1900MB
#P OB98/GEN NMR

erre ene a

0 1
  C     -899.160     628.217    -891.472
  O     -898.010     628.926    -891.882
  H     -899.400     628.500    -890.422
  H     -898.960     627.131    -891.502
  H     -900.000     628.465    -892.122
  P     -897.410     628.550    -893.322
  C     -897.150     626.202    -894.452
  O     -897.180     626.972    -893.232
  C     -895.790     625.520    -894.622
  O     -895.290     625.098    -893.312
  C     -895.800     624.261    -895.482
  O     -895.860     624.556    -896.892
  C     -894.490     623.659    -895.062
  O     -893.400     624.385    -895.672
  C     -894.500     623.871    -893.552
  N     -895.100     622.742    -892.802
  C     -894.420     621.539    -892.832
  O     -893.360     621.431    -893.452
  N     -894.950     620.464    -892.202
  C     -896.060     620.572    -891.532
  N     -896.580     619.451    -890.932
  C     -896.830     621.836    -891.462
  C     -896.290     622.880    -892.122
  O     -895.920     629.143    -893.292
  O     -898.240     629.003    -894.502
  H     -893.340     624.096    -896.602
  H     -895.420     628.852    -894.092
  H     -897.780     621.874    -890.922
  H     -896.820     623.852    -892.092
  H     -893.520     624.069    -893.142
  H     -894.400     622.627    -895.372
  H     -896.610     623.609    -895.182
  H     -895.070     626.273    -894.992
  H     -896.080     618.588    -891.052
  H     -897.320     626.885    -895.302
  H     -897.500     619.407    -890.532
  H     -897.950     625.445    -894.422
  P     -896.110     623.317    -897.872
  C     -894.570     621.556    -899.032
  O     -894.670     622.661    -898.172
  O     -896.480     624.050    -899.272
  O     -897.160     622.350    -897.402
  H     -897.130     623.492    -899.742
  H     -893.545     621.258    -899.112
  H     -894.940     621.823    -900.000
  H     -895.148     620.745    -898.640

 6  7  8  9  10  11  12  13  14  15  16  26  30  31  32  33  35 0
 6-311+G(2d,p)
 ****
 37  38 0
 6-311+G(2d,p)
 ****
 1  2  3  4  5  17  18  19  20  21  22  23  24  25 0
 3-21G
 ****
 27  28  29  34  36  39  40  41  42  43  44  45  46 0
 3-21G
 ****


