%nproc=1
%NoSave
%Mem=1900MB
#P OB98/GEN NMR

erre ene a

0 1
  C      -58.728    -288.780    -579.377
  O      -57.452    -289.329    -579.017
  P      -57.485    -290.666    -578.115
  C      -56.653    -290.166    -575.697
  O      -57.760    -290.229    -576.591
  C      -57.093    -289.640    -574.330
  O      -57.529    -288.272    -574.372
  C      -58.259    -290.427    -573.731
  O      -57.782    -291.632    -573.156
  C      -58.796    -289.449    -572.695
  O      -58.047    -289.523    -571.461
  C      -58.557    -288.084    -573.371
  N      -62.898    -285.560    -572.563
  C      -62.022    -286.130    -571.662
  N      -62.311    -285.968    -570.353
  N      -60.930    -286.777    -572.000
  C      -60.753    -286.860    -573.343
  C      -61.548    -286.318    -574.342
  C      -62.740    -285.608    -573.941
  O      -63.540    -285.071    -574.705
  N      -61.008    -286.552    -575.591
  C      -59.967    -287.326    -575.341
  N      -59.733    -287.495    -573.999
  O      -55.960    -291.146    -578.109
  O      -58.402    -291.722    -578.648
  H      -57.118    -289.290    -571.638
  H      -55.869    -291.965    -578.632
  H      -63.722    -285.089    -572.248
  H      -59.344    -287.784    -576.100
  H      -58.192    -287.335    -572.655
  H      -59.836    -289.652    -572.441
  H      -63.130    -285.477    -570.009
  H      -59.021    -290.618    -574.498
  H      -61.671    -286.364    -569.666
  H      -56.217    -289.701    -573.649
  H      -55.876    -289.512    -576.116
  H      -56.207    -291.161    -575.620
  P      -58.274    -293.020    -573.800
  C      -60.550    -292.824    -572.570
  O      -59.878    -292.999    -573.804
  O      -57.894    -294.102    -572.682
  O      -57.636    -293.345    -575.109
  H      -57.489    -294.874    -573.100
  H      -61.515    -292.327    -572.772
  H      -59.974    -292.217    -571.874
  H      -60.747    -293.804    -572.114
  H      -58.584    -287.902    -579.971
  H      -59.270    -288.526    -578.490
  H      -59.282    -289.503    -579.939

 3  4  5  6  7  8  9  10  11  12  23  26  30  31 0
 6-311+G(2d,p)
 ****
 33  35  36  37  38 0
 6-311+G(2d,p)
 ****
 1  2  13  14  15  16  17  18  19  20  21  22  24  25 0
 3-21G
 ****
 27  28  29  32  34  39  40  41  42  43  44  45  46  47  48  49 0
 3-21G
 ****


