%nproc=1
%NoSave
%Mem=1900MB
#P OB98/GEN NMR

erre ene a

0 1
  C     -319.637    -105.554    -299.117
  O     -318.815    -106.361    -299.938
  H     -320.442    -105.136    -299.727
  H     -319.046    -104.733    -298.702
  H     -320.078    -106.143    -298.306
  P     -317.776    -107.331    -299.191
  C     -315.403    -106.956    -298.206
  O     -316.657    -106.380    -298.537
  C     -314.381    -105.865    -297.900
  O     -314.074    -105.113    -299.093
  C     -314.841    -104.847    -296.862
  O     -314.627    -105.320    -295.537
  C     -313.924    -103.682    -297.179
  O     -312.606    -103.939    -296.644
  C     -313.879    -103.719    -298.715
  N     -315.552     -99.000    -299.539
  C     -314.509     -99.445    -298.751
  N     -313.814     -98.497    -298.083
  N     -314.171    -100.704    -298.627
  C     -314.970    -101.542    -299.336
  C     -316.036    -101.222    -300.145
  C     -316.383     -99.828    -300.287
  O     -317.292     -99.380    -300.982
  N     -316.603    -102.343    -300.698
  C     -315.891    -103.339    -300.206
  N     -314.888    -102.908    -299.371
  O     -317.012    -108.035    -300.410
  O     -318.386    -108.337    -298.279
  H     -312.302    -104.785    -297.020
  H     -317.365    -108.939    -300.525
  H     -315.773     -98.022    -299.593
  H     -316.052    -104.386    -300.429
  H     -312.909    -103.402    -299.112
  H     -314.265    -102.742    -296.742
  H     -314.034     -97.514    -298.117
  H     -315.886    -104.548    -297.018
  H     -313.045     -98.803    -297.500
  H     -313.455    -106.353    -297.578
  H     -315.051    -107.558    -299.054
  H     -315.525    -107.607    -297.332
  P     -315.669    -104.889    -294.398
  C     -315.762    -103.029    -292.594
  O     -315.139    -103.505    -293.775
  O     -315.381    -105.954    -293.237
  O     -317.102    -104.905    -294.807
  H     -316.143    -106.556    -293.144
  H     -315.308    -102.106    -292.299
  H     -315.644    -103.751    -291.813
  H     -316.804    -102.871    -292.779

 6  7  8  9  10  11  12  13  14  15  26  29  33  34 0
 6-311+G(2d,p)
 ****
 36  38  39  40  41 0
 6-311+G(2d,p)
 ****
 1  2  3  4  5  16  17  18  19  20  21  22  23  24  25 0
 3-21G
 ****
 27  28  30  31  32  35  37  42  43  44  45  46  47 0
 3-21G
 ****
 48  49 0
 3-21G
 ****


