%nproc=1
%NoSave
%Mem=1900MB
#P OB98/GEN NMR

erre ene a

0 1
  C      -24.172    -100.639      76.528
  O      -23.233    -100.760      75.474
  P      -21.700    -100.395      75.788
  C      -22.238     -97.876      75.402
  O      -21.679     -98.860      76.255
  C      -21.412     -96.589      75.453
  O      -21.638     -95.944      76.734
  C      -19.900     -96.791      75.309
  O      -19.385     -95.632      74.641
  C      -19.417     -96.804      76.748
  O      -18.031     -96.499      76.866
  C      -20.353     -95.773      77.369
  N      -20.140     -93.498      81.881
  C      -19.845     -93.001      80.624
  N      -19.501     -91.698      80.562
  N      -19.885     -93.717      79.531
  C      -20.260     -95.000      79.750
  C      -20.539     -95.617      80.946
  C      -20.529     -94.806      82.141
  O      -20.867     -95.182      83.260
  N      -20.794     -96.952      80.775
  C      -20.749     -97.122      79.470
  N      -20.474     -95.959      78.802
  O      -21.038    -100.357      74.334
  O      -20.990    -101.326      76.719
  H      -17.829     -96.388      77.817
  H      -20.636    -101.219      74.107
  H      -20.111     -92.894      82.684
  H      -20.910     -98.055      78.954
  H      -20.019     -94.743      77.195
  H      -19.581     -97.798      77.182
  H      -19.481     -91.080      81.359
  H      -19.628     -97.698      74.763
  H      -19.311     -91.300      79.650
  H      -21.783     -95.910      74.676
  H      -23.255     -97.650      75.742
  H      -22.294     -98.262      74.380
  P      -18.372     -95.858      73.420
  C      -16.434     -95.411      75.077
  O      -16.942     -96.222      74.037
  O      -18.161     -94.374      72.853
  O      -18.876     -96.769      72.348
  H      -18.012     -94.409      71.890
  H      -15.697     -95.986      75.643
  H      -17.225     -95.087      75.759
  H      -15.943     -94.534      74.648
  H      -25.144    -100.913      76.173
  H      -24.191     -99.627      76.874
  H      -23.890    -101.286      77.333

 3  4  5  6  7  8  9  10  11  12  23  26  30  31 0
 6-311+G(2d,p)
 ****
 33  35  36  37  38 0
 6-311+G(2d,p)
 ****
 1  2  13  14  15  16  17  18  19  20  21  22  24  25 0
 3-21G
 ****
 27  28  29  32  34  39  40  41  42  43  44  45  46  47  48  49 0
 3-21G
 ****


