%nproc=1
%NoSave
%Mem=1900MB
#P OB98/GEN NMR

erre ene a

0 1
  C       48.433      26.197     -29.694
  O       47.923      25.992     -30.996
  H       47.629      26.032     -28.972
  H       48.793      27.225     -29.593
  H       49.246      25.494     -29.486
  P       48.987      26.009     -32.199
  C       50.762      24.079     -32.322
  O       49.408      24.479     -32.427
  C       50.859      22.616     -31.884
  O       50.346      22.501     -30.533
  C       50.064      21.654     -32.769
  O       50.783      20.423     -32.858
  C       48.784      21.432     -31.982
  O       48.142      20.211     -32.335
  C       49.304      21.504     -30.538
  N       48.247      21.824     -29.581
  C       48.100      20.957     -28.494
  O       48.830      19.971     -28.383
  N       47.105      21.198     -27.582
  C       46.283      22.182     -27.772
  N       45.302      22.353     -26.845
  C       46.372      23.096     -28.927
  C       47.372      22.867     -29.777
  O       50.269      26.655     -31.492
  O       48.526      26.732     -33.420
  H       47.224      20.228     -31.985
  H       50.449      26.290     -30.610
  H       45.657      23.896     -29.048
  H       47.518      23.494     -30.648
  H       49.756      20.548     -30.244
  H       48.079      22.249     -32.173
  H       49.885      22.051     -33.770
  H       51.918      22.333     -31.846
  H       45.264      21.690     -26.081
  H       51.291      24.709     -31.601
  H       44.576      23.049     -26.920
  H       51.232      24.214     -33.302
  P       51.501      20.026     -34.232
  C       53.336      21.135     -35.679
  O       52.877      20.837     -34.365
  O       50.634      20.041     -35.444
  O       52.016      18.530     -33.939
  H       51.863      18.000     -34.745
  H       54.258      21.675     -35.621
  H       52.605      21.730     -36.186
  H       53.490      20.224     -36.218

 6  7  8  9  10  11  12  13  14  15  16  26  30  31  32  33  35 0
 6-311+G(2d,p)
 ****
 37  38 0
 6-311+G(2d,p)
 ****
 1  2  3  4  5  17  18  19  20  21  22  23  24  25 0
 3-21G
 ****
 27  28  29  34  36  39  40  41  42  43  44  45  46 0
 3-21G
 ****


