%nproc=1
%NoSave
%Mem=1900MB
#P OB98/GEN NMR

erre ene a

0 1
  C       21.269      57.550     136.235
  O       20.527      56.439     135.775
  H       21.652      58.099     135.370
  H       22.115      57.214     136.840
  H       20.632      58.216     136.823
  P       19.840      55.519     136.895
  C       21.841      53.860     136.865
  O       21.034      54.742     137.634
  C       22.242      52.656     137.713
  O       23.118      53.089     138.779
  C       21.074      51.958     138.401
  O       20.374      51.102     137.517
  C       21.791      51.218     139.522
  O       22.340      49.975     139.067
  C       22.923      52.186     139.890
  N       23.936      52.565     144.870
  C       24.429      51.757     143.907
  N       24.119      51.733     142.593
  C       23.201      52.672     142.308
  C       22.603      53.561     143.184
  C       23.008      53.488     144.527
  N       22.479      54.285     145.514
  N       21.675      54.341     142.524
  C       21.719      53.937     141.270
  N       22.631      52.936     141.094
  O       19.124      54.377     136.029
  O       18.882      56.222     137.796
  H       21.583      49.415     138.805
  H       18.192      54.621     135.874
  H       25.169      51.032     144.235
  H       21.111      54.330     140.465
  H       23.874      51.667     140.054
  H       21.112      50.991     140.345
  H       20.396      52.699     138.842
  H       22.798      51.953     137.081
  H       22.744      54.387     136.539
  H       21.277      53.540     135.984
  H       22.800      54.162     146.461
  H       21.710      54.902     145.287
  P       18.773      51.132     137.530
  C       18.864      49.690     139.692
  O       18.293      50.805     139.026
  O       18.374      49.820     136.707
  O       18.168      52.364     136.945
  H       18.133      50.053     135.791
  H       18.444      49.606     140.672
  H       19.923      49.824     139.768
  H       18.656      48.799     139.138

 6  7  8  9  10  11  12  13  14  15  25  28  32  33  34  35 0
 6-311+G(2d,p)
 ****
 36  37  40 0
 6-311+G(2d,p)
 ****
 1  2  3  4  5  16  17  18  19  20  21  22  23  24 0
 3-21G
 ****
 26  27  29  30  31  38  39 41  42  43  44  45  46  47  48 0
 3-21G
 ****


