%nproc=1
%NoSave
%Mem=1900MB
#P OB98/GEN NMR

erre ene a

0 1
  C     1342.289    -191.053     426.417
  O     1341.855    -189.697     426.233
  P     1340.456    -189.490     425.481
  C     1341.108    -190.443     423.152
  O     1340.761    -189.296     423.915
  C     1340.842    -190.187     421.652
  O     1339.441    -190.068     421.393
  C     1341.472    -188.921     421.118
  O     1342.871    -189.085     420.864
  C     1340.688    -188.711     419.832
  O     1341.271    -189.529     418.784
  C     1339.301    -189.228     420.201
  N     1336.515    -185.457     418.273
  C     1337.365    -186.336     417.639
  N     1337.486    -186.225     416.308
  N     1338.065    -187.267     418.271
  C     1337.838    -187.290     419.592
  C     1337.006    -186.465     420.355
  C     1336.266    -185.431     419.634
  O     1335.535    -184.603     420.152
  N     1337.008    -186.808     421.680
  C     1337.825    -187.849     421.739
  N     1338.349    -188.175     420.508
  O     1340.008    -188.016     425.940
  O     1339.432    -190.513     425.814
  H     1340.801    -189.279     417.962
  H     1339.050    -187.924     425.919
  H     1336.024    -184.767     417.744
  H     1338.061    -188.400     422.636
  H     1338.862    -189.864     419.412
  H     1340.720    -187.669     419.477
  H     1336.939    -185.600     415.756
  H     1341.287    -188.072     421.810
  H     1338.084    -186.876     415.807
  H     1341.229    -191.051     421.095
  H     1340.493    -191.311     423.480
  H     1342.153    -190.702     423.328
  P     1343.866    -188.866     422.089
  C     1344.410    -186.549     421.072
  O     1344.910    -187.742     421.608
  O     1344.739    -190.209     422.090
  O     1343.215    -188.623     423.409
  H     1345.060    -190.422     422.994
  H     1343.570    -186.174     421.652
  H     1344.093    -186.702     420.026
  H     1345.203    -185.791     421.077
  H     1343.229    -191.060     426.927
  H     1342.397    -191.525     425.463
  H     1341.564    -191.584     426.998

 3  4  5  6  7  8  9  10  11  12  23  26  30  31  33  0
 6-311+G(2d,p)
 ****
 35  36  37  38 0
 6-311+G(2d,p)
 ****
 1  2  13  14  15  16  17  18  19  20  21  22  24  25  27  28  29 0
 3-21G
 ****
 32  34  39  40  41  42  43  44  45  46  47  48  49 0
 3-21G
 ****


