%nproc=1
%NoSave
%Mem=1900MB
#P OB98/GEN NMR

erre ene a

0 1
  C     -366.219     307.678    -196.186
  O     -364.935     308.155    -196.530
  P     -363.604     307.332    -196.166
  C     -362.178     309.349    -195.456
  O     -362.385     308.339    -196.435
  C     -361.790     310.677    -196.104
  O     -360.554     310.509    -196.857
  C     -362.841     311.260    -197.059
  O     -362.754     312.682    -196.945
  C     -362.329     310.807    -198.414
  O     -362.873     311.570    -199.486
  C     -360.815     310.934    -198.213
  N     -360.060     310.155    -199.191
  C     -359.377     310.872    -200.177
  O     -359.489     312.098    -200.236
  N     -358.634     310.187    -201.097
  C     -358.648     308.889    -201.094
  N     -357.892     308.256    -202.028
  C     -359.460     308.093    -200.153
  C     -360.119     308.781    -199.229
  O     -363.485     306.005    -196.831
  O     -363.641     307.243    -194.571
  H     -362.409     312.436    -199.524
  H     -364.290     306.554    -194.280
  H     -359.486     307.015    -200.228
  H     -360.740     308.280    -198.492
  H     -360.500     311.989    -198.290
  H     -362.602     309.761    -198.584
  H     -363.853     310.915    -196.856
  H     -361.576     311.400    -195.298
  H     -357.336     308.839    -202.648
  H     -361.370     309.024    -194.798
  H     -357.768     307.256    -202.064
  H     -363.082     309.467    -194.843
  P     -364.035     313.617    -197.189
  C     -363.139     315.157    -199.024
  O     -363.490     315.048    -197.655
  O     -365.013     313.661    -196.055
  O     -364.706     313.030    -198.518
  H     -365.615     313.368    -198.603
  H     -363.056     316.218    -199.293
  H     -363.900     314.698    -199.665
  H     -362.179     314.672    -199.197
  H     -366.959     308.375    -196.519
  H     -366.286     307.567    -195.124
  H     -366.385     306.730    -196.654

 3  4  5  6  7  8  9  10  11  12  13  23  27  28  29  30  32 0
 6-311+G(2d,p)
 ****
 34  35 0
 6-311+G(2d,p)
 ****
 1  2  14  15  16  17  18  19  20  21  22  24  25  26 0
 3-21G
 ****
 31  33  36  37  38  39  40  41  42  43  44  45  46 0
 3-21G
 ****


