%nproc=1
%NoSave
%Mem=1900MB
#P OB98/GEN NMR

erre ene a

0 1
  C      -18.850     319.296     103.079
  O      -18.137     320.323     103.741
  H      -18.705     319.407     102.000
  H      -19.920     319.364     103.297
  H      -18.470     318.318     103.383
  P      -18.309     320.486     105.324
  C      -20.076     321.518     106.894
  O      -19.631     321.370     105.549
  C      -21.425     322.237     106.941
  O      -21.212     323.642     106.630
  C      -22.455     321.684     105.951
  O      -23.743     321.723     106.570
  C      -22.382     322.668     104.803
  O      -23.573     322.670     104.040
  C      -22.068     323.984     105.523
  N      -21.440     324.948     104.620
  C      -22.292     325.613     103.727
  O      -23.502     325.388     103.738
  N      -21.745     326.466     102.800
  C      -20.456     326.601     102.730
  N      -19.981     327.430     101.764
  C      -19.522     325.900     103.633
  C      -20.075     325.099     104.544
  O      -17.107     320.962     106.071
  O      -18.760     319.029     105.810
  H      -23.534     323.393     103.381
  H      -17.976     318.497     106.044
  H      -18.455     326.040     103.528
  H      -19.463     324.530     105.240
  H      -22.986     324.430     105.934
  H      -21.551     322.399     104.135
  H      -22.226     320.660     105.627
  H      -21.806     322.195     107.970
  H      -20.661     327.872     101.152
  H      -19.325     322.106     107.433
  H      -18.998     327.582     101.584
  H      -20.157     320.535     107.365
  P      -24.628     320.390     106.714
  C      -26.233     318.981     105.301
  O      -25.531     320.213     105.394
  O      -25.379     320.270     108.000
  O      -23.552     319.204     106.582
  H      -23.857     318.434     107.100
  H      -26.800     318.961     104.394
  H      -26.894     318.883     106.137
  H      -25.534     318.171     105.302

 6  7  8  9  10  11  12  13  14  15  16  26  30  31  32  33  35 0
 6-311+G(2d,p)
 ****
 37  38 0
 6-311+G(2d,p)
 ****
 1  2  3  4  5  17  18  19  20  21  22  23  24  25 0
 3-21G
 ****
 27  28  29  34  36  39  40  41  42  43  44  45  46 0
 3-21G
 ****


