%nproc=1
%NoSave
%Mem=1900MB
#P OB98/GEN NMR

erre ene a

0 1
  C      538.146     620.322    -551.046
  O      536.989     620.066    -550.282
  P      536.151     621.279    -549.652
  C      535.141     619.704    -547.876
  O      534.870     620.667    -548.894
  C      533.912     619.522    -546.982
  O      533.488     620.786    -546.422
  C      532.697     618.976    -547.702
  O      532.831     617.598    -548.012
  C      531.598     619.307    -546.702
  O      531.556     618.327    -545.646
  C      532.074     620.669    -546.149
  N      531.322     621.780    -546.711
  C      530.507     622.481    -545.819
  O      530.374     622.104    -544.659
  N      529.840     623.593    -546.278
  C      529.892     623.904    -547.532
  N      529.270     625.057    -547.923
  C      530.612     623.098    -548.537
  C      531.328     622.073    -548.060
  O      535.851     622.403    -550.584
  O      537.069     621.786    -548.432
  H      537.172     622.750    -548.491
  H      531.352     617.461    -546.071
  H      530.578     623.365    -549.596
  H      531.905     621.435    -548.716
  H      531.984     620.689    -545.061
  H      530.605     619.327    -547.168
  H      532.530     619.543    -548.625
  H      534.202     618.860    -546.153
  H      528.787     625.586    -547.206
  H      535.987     620.057    -547.276
  H      529.510     625.547    -548.773
  H      535.421     618.753    -548.346
  P      532.845     617.201    -549.573
  C      530.947     615.433    -549.600
  O      532.346     615.692    -549.689
  O      534.409     617.118    -549.919
  O      532.144     618.172    -550.468
  H      534.568     617.447    -550.826
  H      530.758     614.448    -550.038
  H      530.374     616.188    -550.149
  H      530.650     615.424    -548.556
  H      538.566     619.396    -551.379
  H      538.862     620.843    -550.445
  H      537.888     620.922    -551.894

 3  4  5  6  7  8  9  10  11  12  13  24  27  28  29  30  32 0
 6-311+G(2d,p)
 ****
 34  35 0
 6-311+G(2d,p)
 ****
 1  2  14  15  16  17  18  19  20  21  22  23  25  26 0
 3-21G
 ****
 31  33  36  37  38  39  40  41  42  43  44  45  46 0
 3-21G
 ****


