%nproc=1
%NoSave
%Mem=1900MB
#P OB98/GEN NMR

erre ene a

0 1
  C      -58.843       7.493     255.367
  O      -58.830       7.043     256.709
  P      -59.295       5.540     257.017
  C      -56.912       4.498     256.653
  O      -58.267       4.578     256.250
  C      -56.413       3.053     256.553
  O      -57.188       2.225     257.463
  C      -56.532       2.436     255.154
  O      -55.408       1.562     254.980
  C      -57.818       1.634     255.248
  O      -57.893       0.601     254.279
  C      -57.739       1.136     256.696
  N      -59.033       0.726     257.242
  C      -59.519      -0.528     256.891
  O      -58.938      -1.301     256.131
  N      -60.738      -0.864     257.426
  C      -61.524      -0.065     258.202
  O      -62.614      -0.412     258.639
  C      -60.980       1.267     258.501
  C      -59.777       1.589     258.024
  O      -60.636       5.448     256.152
  O      -59.461       5.250     258.470
  H      -60.585       5.945     255.317
  H      -57.751       1.000     253.401
  H      -61.092      -1.783     257.215
  H      -61.580       1.936     259.104
  H      -59.354       2.566     258.231
  H      -57.031       0.302     256.768
  H      -58.674       2.301     255.102
  H      -56.544       3.188     254.363
  H      -55.372       3.026     256.898
  H      -56.819       4.837     257.688
  H      -56.309       5.163     256.026
  P      -54.992       1.152     253.480
  C      -52.663       2.210     252.926
  O      -54.068       2.325     252.902
  O      -56.388       1.391     252.723
  O      -54.484      -0.243     253.326
  H      -56.790       2.250     252.936
  H      -52.242       2.918     252.208
  H      -52.340       1.203     252.652
  H      -52.291       2.456     253.924
  H      -58.508       8.509     255.328
  H      -59.838       7.431     254.979
  H      -58.192       6.880     254.779

 3  4  5  6  7  8  9  10  11  12  13  24  28  29  30  31  32 0
 6-311+G(2d,p)
 ****
 33  34 0
 6-311+G(2d,p)
 ****
 1  2  14  15  16  17  18  19  20  21  22  23  25  26  27 0
 3-21G
 ****
 35  36  37  38  39  40  41  42  43  44  45 0
 3-21G
 ****


