%nproc=1
%NoSave
%Mem=1900MB
#P OB98/GEN NMR

erre ene a

0 1
  C     -227.251     331.173      23.502
  O     -226.979     330.446      22.314
  P     -227.486     330.984      20.894
  C     -228.380     328.601      20.496
  O     -227.648     329.689      19.952
  C     -227.705     327.269      20.158
  O     -227.697     327.106      18.717
  C     -226.265     327.179      20.641
  O     -225.995     325.835      21.053
  C     -225.438     327.471      19.401
  O     -224.130     326.871      19.494
  C     -226.332     326.904      18.295
  N     -223.039     327.891      14.485
  C     -222.916     327.152      15.606
  N     -223.821     326.954      16.586
  C     -224.984     327.575      16.297
  C     -225.255     328.358      15.188
  C     -224.217     328.518      14.249
  N     -224.349     329.261      13.098
  N     -226.548     328.856      15.244
  C     -227.045     328.359      16.357
  N     -226.139     327.566      17.025
  O     -226.675     332.083      20.302
  O     -229.004     331.433      21.150
  H     -223.661     327.062      18.655
  H     -229.210     332.240      20.643
  H     -221.957     326.656      15.739
  H     -228.041     328.542      16.729
  H     -226.176     325.828      18.158
  H     -225.300     328.552      19.295
  H     -226.042     327.872      21.459
  H     -228.314     326.456      20.578
  H     -229.392     328.614      20.072
  H     -223.596     329.215      12.427
  H     -225.276     329.577      12.837
  H     -228.465     328.727      21.583
  P     -226.173     325.540      22.629
  C     -223.621     325.174      23.051
  O     -224.912     324.610      23.009
  O     -227.530     325.007      22.956
  O     -225.839     326.974      23.259
  H     -225.274     327.503      22.665
  H     -222.903     324.384      23.292
  H     -223.570     325.937      23.839
  H     -223.361     325.620      22.087
  H     -226.833     330.656      24.340
  H     -228.309     331.264      23.630
  H     -226.815     332.148      23.431

 3  4  5  6  7  8  9  10  11  12  22  25  29  30  31  32 0
 6-311+G(2d,p)
 ****
 33  36  37 0
 6-311+G(2d,p)
 ****
 1  2  13  14  15  16  17  18  19  20  21  23  24  26 0
 3-21G
 ****
 27  28  34  35  38  39  40  41  42  43  44  45  46  47  48 0
 3-21G
 ****


