%nproc=1
%NoSave
%Mem=1900MB
#P OB98/GEN NMR

erre ene a

0 1
  C      -21.514     -57.566     -70.133
  O      -21.304     -57.756     -71.519
  H      -20.572     -57.746     -69.609
  H      -22.266     -58.263     -69.753
  H      -21.830     -56.537     -69.940
  P      -22.590     -57.802     -72.479
  C      -21.042     -58.247     -74.498
  O      -22.157     -58.706     -73.736
  C      -20.390     -59.400     -75.265
  O      -19.753     -60.309     -74.346
  C      -21.379     -60.252     -76.046
  O      -21.954     -59.597     -77.157
  C      -20.603     -61.545     -76.254
  O      -19.759     -61.521     -77.401
  C      -19.740     -61.609     -74.970
  N      -20.191     -62.655     -74.059
  C      -19.484     -63.851     -74.113
  O      -18.546     -64.052     -74.885
  N      -19.917     -64.838     -73.271
  C      -20.996     -64.762     -72.439
  O      -21.359     -65.699     -71.739
  C      -21.721     -63.481     -72.446
  C      -21.292     -62.500     -73.244
  O      -23.166     -56.471     -72.860
  O      -23.616     -58.745     -71.693
  H      -19.356     -62.409     -77.478
  H      -24.534     -58.641     -72.043
  H      -19.410     -65.709     -73.288
  H      -22.584     -63.386     -71.800
  H      -21.812     -61.545     -73.267
  H      -18.694     -61.819     -75.228
  H      -21.274     -62.399     -76.368
  H      -22.213     -60.500     -75.380
  H      -19.619     -58.985     -75.923
  H      -20.314     -57.822     -73.799
  H      -21.367     -57.462     -75.190
  P      -23.392     -58.903     -77.118
  C      -23.264     -58.221     -79.622
  O      -23.993     -58.906     -78.609
  O      -23.516     -57.658     -76.299
  O      -24.274     -60.044     -76.395
  H      -24.948     -59.593     -75.849
  H      -23.781     -58.308     -80.555
  H      -22.289     -58.652     -79.713
  H      -23.174     -57.188     -79.360

 6  7  8  9  10  11  12  13  14  15  16  26  31  32  33  34  35 0
 6-311+G(2d,p)
 ****
 36  37 0
 6-311+G(2d,p)
 ****
 1  2  3  4  5  17  18  19  20  21  22  23  24  25 0
 3-21G
 ****
 27  28  29  30  38  39  40  41  42  43  44  45 0
 3-21G
 ****


