%nproc=1
%NoSave
%Mem=1900MB
#P OB98/GEN NMR

erre ene a

0 1
  C       38.566    -229.430    -318.323
  O       39.132    -230.616    -317.790
  P       38.561    -231.284    -316.446
  C       40.689    -230.476    -315.216
  O       39.272    -230.498    -315.241
  C       41.197    -230.734    -313.790
  O       40.907    -229.571    -312.976
  C       40.560    -231.951    -313.102
  O       41.563    -232.546    -312.280
  C       39.468    -231.327    -312.255
  O       39.069    -232.158    -311.176
  C       40.143    -230.013    -311.837
  N       39.187    -229.000    -311.416
  C       39.040    -228.766    -310.046
  O       39.683    -229.422    -309.220
  N       38.160    -227.796    -309.631
  C       37.431    -227.168    -310.505
  N       36.618    -226.175    -310.050
  C       37.473    -227.458    -311.950
  C       38.382    -228.356    -312.329
  O       38.693    -232.767    -316.377
  O       37.059    -230.757    -316.343
  H       38.323    -231.724    -310.717
  H       36.417    -231.306    -316.863
  H       36.825    -226.930    -312.637
  H       38.505    -228.617    -313.378
  H       40.865    -230.198    -311.030
  H       38.586    -231.137    -312.875
  H       40.190    -232.698    -313.816
  H       42.291    -230.848    -313.831
  H       36.744    -225.892    -309.083
  H       41.029    -229.486    -315.535
  H       36.283    -225.446    -310.671
  H       41.083    -231.222    -315.914
  P       41.596    -234.148    -312.144
  C       40.474    -234.173    -309.801
  O       40.416    -234.585    -311.150
  O       42.904    -234.378    -311.233
  O       41.728    -234.916    -313.417
  H       43.260    -235.270    -311.408
  H       39.592    -234.556    -309.275
  H       40.472    -233.083    -309.734
  H       41.365    -234.579    -309.313
  H       39.089    -229.155    -319.215
  H       38.647    -228.642    -317.604
  H       37.535    -229.599    -318.552

 3  4  5  6  7  8  9  10  11  12  13  23  27  28  29  30  32 0
 6-311+G(2d,p)
 ****
 34  35 0
 6-311+G(2d,p)
 ****
 1  2  14  15  16  17  18  19  20  21  22  24  25  26 0
 3-21G
 ****
 31  33  36  37  38  39  40  41  42  43  44  45  46 0
 3-21G
 ****


