%nproc=1
%NoSave
%Mem=1900MB
#P OB98/GEN NMR

erre ene a

0 1
  C      348.414    -899.212    -705.704
  O      347.149    -898.892    -706.223
  P      345.979    -898.382    -705.250
  C      346.331    -896.062    -706.289
  O      346.124    -896.782    -705.068
  C      346.569    -894.552    -706.072
  O      345.390    -893.912    -705.536
  C      347.728    -894.222    -705.061
  O      348.299    -893.002    -705.573
  C      346.992    -893.992    -703.754
  O      347.778    -893.292    -702.813
  C      345.723    -893.282    -704.255
  N      344.612    -893.402    -703.300
  C      344.410    -892.312    -702.426
  O      345.189    -891.352    -702.474
  N      343.395    -892.382    -701.528
  C      342.677    -893.492    -701.455
  N      341.673    -893.482    -700.527
  C      342.920    -894.662    -702.280
  C      343.875    -894.572    -703.183
  O      345.828    -899.152    -703.982
  O      344.650    -898.522    -706.159
  H      347.184    -893.062    -702.032
  H      343.883    -898.712    -705.564
  H      342.314    -895.542    -702.153
  H      344.124    -895.362    -703.840
  H      345.915    -892.242    -704.472
  H      346.734    -894.982    -703.320
  H      348.495    -895.012    -705.016
  H      346.794    -894.122    -707.052
  H      341.564    -892.672    -699.933
  H      345.466    -896.192    -706.931
  H      341.150    -894.322    -700.275
  H      347.210    -896.492    -706.821
  P      349.434    -892.982    -706.715
  C      348.010    -892.062    -708.617
  O      348.640    -893.202    -708.108
  O      350.581    -893.912    -706.479
  O      349.902    -891.432    -706.817
  H      350.772    -891.402    -707.244
  H      347.708    -892.252    -709.669
  H      348.632    -891.172    -708.607
  H      347.088    -891.862    -708.058
  H      349.056    -899.530    -706.499
  H      348.316    -900.000    -704.987
  H      348.834    -898.349    -705.230

 3  4  5  6  7  8  9  10  11  12  13  23  27  28  29  30  32 0
 6-311+G(2d,p)
 ****
 34  35 0
 6-311+G(2d,p)
 ****
 1  2  14  15  16  17  18  19  20  21  22  24  25  26 0
 3-21G
 ****
 31  33  36  37  38  39  40  41  42  43  44  45  46 0
 3-21G
 ****


