%nproc=1
%NoSave
%Mem=1900MB
#P OB98/GEN NMR

erre ene a

0 1
  C     -434.947     364.667     158.829
  O     -436.054     363.812     158.679
  P     -437.545     364.343     158.459
  C     -438.811     364.580     160.719
  O     -437.974     365.202     159.749
  C     -439.764     365.571     161.414
  O     -439.057     366.792     161.700
  C     -440.911     365.943     160.471
  O     -442.043     365.102     160.369
  C     -441.221     367.405     160.788
  O     -442.335     367.553     161.668
  C     -439.934     367.905     161.446
  N     -439.138     372.853     160.687
  C     -439.721     372.225     161.766
  N     -440.327     373.034     162.660
  N     -439.726     370.921     161.932
  C     -439.156     370.248     160.907
  C     -438.538     370.759     159.790
  C     -438.505     372.194     159.633
  O     -438.074     372.791     158.650
  N     -438.144     369.773     158.927
  C     -438.561     368.662     159.495
  N     -439.214     368.902     160.677
  O     -438.535     363.373     157.889
  O     -437.311     365.495     157.349
  H     -442.475     368.508     161.820
  H     -438.100     365.505     156.770
  H     -439.241     373.855     160.562
  H     -438.445     367.662     159.083
  H     -440.158     368.348     162.425
  H     -441.476     367.947     159.870
  H     -440.476     374.015     162.487
  H     -440.498     365.953     159.455
  H     -440.911     372.600     163.374
  H     -440.090     365.190     162.380
  H     -438.157     364.090     161.448
  H     -439.401     363.797     160.238
  P     -442.762     364.639     159.017
  C     -444.796     366.190     158.831
  O     -443.488     365.914     158.364
  O     -444.001     363.749     159.508
  O     -441.897     363.859     158.081
  H     -444.277     363.141     158.788
  H     -445.290     366.861     158.127
  H     -444.731     366.686     159.809
  H     -445.373     365.273     158.924
  H     -434.061     364.083     158.963
  H     -435.093     365.294     159.684
  H     -434.845     365.275     157.955

 3  4  5  6  7  8  9  10  11  12  23  26  30  31 0
 6-311+G(2d,p)
 ****
 33  35  36  37  38 0
 6-311+G(2d,p)
 ****
 1  2  13  14  15  16  17  18  19  20  21  22  24  25 0
 3-21G
 ****
 27  28  29  32  34  39  40  41  42  43  44  45  46  47  48  49 0
 3-21G
 ****


