%nproc=1
%NoSave
%Mem=1900MB
#P OB98/GEN NMR

erre ene a

0 1
  C     -120.828    -899.020    -896.496
  O     -121.569    -898.610    -897.626
  H     -119.778    -899.120    -896.776
  H     -121.195    -900.000    -896.146
  H     -120.912    -898.280    -895.686
  P     -123.113    -898.230    -897.376
  C     -122.650    -895.690    -897.816
  O     -123.105    -896.690    -896.926
  C     -122.647    -894.320    -897.116
  O     -123.920    -894.170    -896.406
  C     -121.517    -894.140    -896.096
  O     -121.078    -892.770    -896.146
  C     -122.182    -894.410    -894.746
  O     -121.489    -893.780    -893.686
  C     -123.600    -893.890    -895.016
  N     -124.603    -894.480    -894.106
  C     -125.110    -893.690    -893.116
  O     -124.718    -892.500    -892.986
  N     -126.034    -894.200    -892.226
  C     -126.332    -895.470    -892.296
  N     -127.203    -895.930    -891.386
  C     -125.768    -896.390    -893.316
  C     -124.927    -895.830    -894.186
  O     -123.439    -899.030    -896.036
  O     -124.010    -898.560    -898.536
  H     -120.643    -894.260    -893.576
  H     -122.723    -898.990    -895.376
  H     -126.040    -897.430    -893.326
  H     -124.472    -896.430    -894.966
  H     -123.657    -892.800    -894.876
  H     -122.213    -895.490    -894.566
  H     -120.673    -894.800    -896.266
  H     -122.639    -893.540    -897.886
  H     -127.569    -895.280    -890.686
  H     -123.289    -895.640    -898.706
  H     -127.497    -896.900    -891.306
  H     -121.643    -895.960    -898.126
  P     -119.662    -892.450    -896.846
  C     -120.276    -891.090    -898.936
  O     -119.860    -892.350    -898.416
  O     -118.519    -893.280    -896.386
  O     -119.427    -890.900    -896.436
  H     -118.468    -890.800    -896.226
  H     -120.372    -891.157    -900.000
  H     -119.549    -890.345    -898.690
  H     -121.220    -890.822    -898.510

 6  7  8  9  10  11  12  13  14  15  16  26  30  31  32  33  35 0
 6-311+G(2d,p)
 ****
 37  38 0
 6-311+G(2d,p)
 ****
 1  2  3  4  5  17  18  19  20  21  22  23  24  25 0
 3-21G
 ****
 27  28  29  34  36  39  40  41  42  43  44  45  46 0
 3-21G
 ****


