%nproc=1
%NoSave
%Mem=1900MB
#P OB98/GEN NMR

erre ene a

0 1
  C     -177.945     -12.447    -387.336
  O     -177.075     -11.725    -388.184
  H     -178.882     -11.899    -387.210
  H     -178.161     -13.415    -387.797
  H     -177.478     -12.617    -386.361
  P     -176.492     -10.343    -387.614
  C     -173.978     -11.006    -387.672
  O     -175.014     -10.206    -388.228
  C     -173.897     -12.351    -388.395
  O     -173.817     -12.110    -389.825
  C     -172.677     -13.187    -387.995
  O     -173.058     -14.563    -387.936
  C     -171.707     -12.968    -389.145
  O     -170.779     -14.039    -389.277
  C     -172.663     -12.816    -390.322
  N     -169.611     -13.222    -394.396
  C     -170.117     -14.146    -393.550
  N     -170.931     -13.954    -392.491
  C     -171.254     -12.655    -392.372
  C     -170.816     -11.599    -393.153
  C     -169.944     -11.922    -394.207
  N     -169.393     -10.984    -395.051
  N     -171.339     -10.406    -392.692
  C     -172.080     -10.737    -391.655
  N     -172.055     -12.085    -391.420
  O     -176.227     -10.697    -386.071
  O     -177.373      -9.152    -387.771
  H     -170.198     -13.848    -390.044
  H     -177.067     -10.650    -385.578
  H     -169.826     -15.175    -393.749
  H     -172.640     -10.047    -391.038
  H     -172.995     -13.784    -390.724
  H     -171.141     -12.045    -388.978
  H     -172.251     -12.885    -387.037
  H     -174.830     -12.901    -388.219
  H     -174.190     -11.173    -386.612
  H     -168.733     -11.299    -395.743
  H     -169.581     -10.005    -394.887
  H     -173.024     -10.477    -387.768
  P     -173.370     -15.163    -386.480
  C     -174.673     -17.323    -387.076
  O     -173.460     -16.763    -386.593
  O     -174.882     -14.713    -386.209
  O     -172.450     -14.655    -385.415
  H     -174.953     -14.298    -385.331
  H     -174.590     -18.390    -387.098
  H     -174.865     -16.960    -388.064
  H     -175.478     -17.041    -386.430

 6  7  8  9  10  11  12  13  14  15  25  28  32  33  34  35 0
 6-311+G(2d,p)
 ****
 36  39  40 0
 6-311+G(2d,p)
 ****
 1  2  3  4  5  16  17  18  19  20  21  22  23  24 0
 3-21G
 ****
 26  27  29  30  31  37  38  41  42  43  44  45  46  47 0
 3-21G
 ****
 48 0
 3-21G
 ****


