%nproc=1
%NoSave
%Mem=1900MB
#P OB98/GEN NMR

erre ene a

0 1
  C     -874.367     791.972    -890.660
  O     -874.429     791.190    -891.830
  H     -875.140     791.612    -889.940
  H     -874.583     793.027    -890.890
  H     -873.379     791.880    -890.200
  P     -873.487     791.644    -893.040
  C     -873.545     793.771    -894.570
  O     -874.254     792.893    -893.680
  C     -874.500     794.374    -895.600
  O     -875.549     795.120    -894.920
  C     -873.858     795.363    -896.570
  O     -873.098     794.709    -897.610
  C     -875.095     796.043    -897.090
  O     -875.787     795.175    -898.020
  C     -875.918     796.235    -895.810
  N     -875.652     797.523    -895.130
  C     -876.726     798.398    -895.020
  O     -877.823     798.108    -895.470
  N     -876.513     799.613    -894.440
  C     -875.352     799.925    -893.950
  N     -875.187     801.170    -893.400
  C     -874.183     799.022    -894.030
  C     -874.414     797.835    -894.640
  O     -873.689     790.489    -894.150
  O     -872.038     791.907    -892.680
  H     -875.221     795.101    -898.810
  H     -873.244     790.745    -894.990
  H     -873.212     799.337    -893.650
  H     -873.564     797.122    -894.710
  H     -876.982     796.146    -895.980
  H     -874.867     796.960    -897.620
  H     -873.245     796.078    -896.030
  H     -875.002     793.543    -896.130
  H     -875.975     801.796    -893.430
  H     -872.773     793.182    -895.090
  H     -874.298     801.547    -893.130
  H     -873.060     794.573    -893.980
  P     -871.709     795.392    -898.010
  C     -871.019     797.524    -899.340
  O     -872.057     796.713    -898.850
  O     -871.141     794.374    -899.140
  O     -870.757     795.603    -896.860
  H     -870.162     794.351    -899.070
  H     -871.435     798.354    -899.872
  H     -870.400     796.952    -900.000
  H     -870.431     797.884    -898.522

 6  7  8  9  10  11  12  13  14  15  16  26  30  31  32  33  35 0
 6-311+G(2d,p)
 ****
 37  38 0
 6-311+G(2d,p)
 ****
 1  2  3  4  5  17  18  19  20  21  22  23  24  25 0
 3-21G
 ****
 27  28  29  34  36  39  40  41  42  43  44  45  46 0
 3-21G
 ****


