%nproc=1
%NoSave
%Mem=1900MB
#P OB98/GEN NMR

erre ene a

0 1
  C     -238.678    -399.925    -588.271
  O     -240.000    -399.967    -588.811
  P     -240.299    -399.272    -590.222
  C     -240.471    -401.280    -591.845
  O     -239.691    -400.175    -591.396
  C     -239.855    -401.867    -593.121
  O     -239.792    -400.883    -594.178
  C     -238.417    -402.329    -592.931
  O     -238.219    -403.468    -592.120
  C     -237.909    -402.396    -594.360
  O     -238.271    -403.621    -594.994
  C     -238.657    -401.207    -595.012
  N     -237.797    -400.037    -595.210
  C     -236.673    -400.233    -596.012
  O     -236.376    -401.318    -596.505
  N     -235.881    -399.130    -596.200
  C     -236.075    -397.896    -595.649
  O     -235.315    -396.952    -595.838
  C     -237.259    -397.760    -594.790
  C     -238.053    -398.820    -594.609
  O     -239.982    -397.817    -590.307
  O     -241.880    -399.504    -590.398
  H     -239.230    -403.596    -595.159
  H     -242.259    -398.684    -590.772
  H     -235.070    -399.252    -596.789
  H     -237.440    -396.798    -594.336
  H     -238.935    -398.736    -593.985
  H     -239.055    -401.495    -595.992
  H     -236.815    -402.326    -594.405
  H     -237.869    -401.514    -592.438
  H     -240.499    -402.683    -593.469
  H     -241.496    -400.954    -592.036
  H     -240.521    -402.028    -591.046
  P     -236.837    -403.777    -591.363
  C     -237.623    -405.433    -589.528
  O     -237.169    -404.136    -589.839
  O     -235.691    -402.859    -591.621
  O     -236.468    -405.224    -591.964
  H     -235.499    -405.294    -592.017
  H     -237.817    -405.492    -588.448
  H     -236.869    -406.179    -589.788
  H     -238.558    -405.642    -590.059
  H     -238.661    -400.435    -587.330
  H     -238.382    -398.906    -588.130
  H     -238.001    -400.403    -588.948

 3  4  5  6  7  8  9  10  11  12  13  23  28  29  30  31  32 0
 6-311+G(2d,p)
 ****
 33  34 0
 6-311+G(2d,p)
 ****
 1  2  14  15  16  17  18  19  20  21  22  24  25  26  27 0
 3-21G
 ****
 35  36  37  38  39  40  41  42  43  44  45 0
 3-21G
 ****


