%nproc=1
%NoSave
%Mem=1900MB
#P OB98/GEN NMR

erre ene a

0 1
  C        3.750     -23.151     -81.374
  O        2.884     -23.132     -82.494
  P        1.360     -23.586     -82.263
  C        1.815     -25.816     -83.518
  O        1.351     -25.190     -82.326
  C        1.432     -27.296     -83.555
  O        2.043     -27.966     -82.425
  C       -0.075     -27.553     -83.502
  O       -0.359     -28.673     -84.343
  C       -0.316     -27.949     -82.056
  O       -1.494     -28.743     -81.913
  C        0.997     -28.674     -81.721
  N        1.254     -28.713     -80.284
  C        0.358     -29.451     -79.503
  O       -0.634     -29.963     -80.021
  N        0.585     -29.547     -78.150
  C        1.554     -28.872     -77.613
  N        1.735     -29.003     -76.269
  C        2.444     -27.983     -78.385
  C        2.255     -27.969     -79.703
  O        0.646     -23.158     -83.629
  O        0.703     -22.980     -81.066
  H       -1.354     -29.584     -82.400
  H       -0.285     -22.905     -83.473
  H        3.214     -27.417     -77.880
  H        2.877     -27.364     -80.350
  H        0.979     -29.705     -82.100
  H       -0.427     -27.050     -81.437
  H       -0.666     -26.690     -83.825
  H        1.861     -27.738     -84.464
  H        1.102     -29.607     -75.760
  H        2.907     -25.744     -83.555
  H        2.465     -28.517     -75.761
  H        1.410     -25.288     -84.388
  P       -1.239     -28.414     -85.657
  C       -3.226     -29.667     -84.621
  O       -2.761     -28.442     -85.154
  O       -1.124     -29.831     -86.404
  O       -0.844     -27.296     -86.564
  H       -1.573     -29.785     -87.268
  H       -4.220     -29.510     -84.193
  H       -2.558     -30.023     -83.833
  H       -3.302     -30.414     -85.415
  H        4.725     -22.827     -81.672
  H        3.808     -24.146     -80.985
  H        3.371     -22.494     -80.619

 3  4  5  6  7  8  9  10  11  12  13  21  23  27  28  29  30  32 0
 6-311+G(2d,p)
 ****
 34  35 0
 6-311+G(2d,p)
 ****
 1  2  14  15  16  17  18  19  20  22  24  25  26 0
 3-21G
 ****
 31  33  36  37  38  39  40  41  42  43  44  45  46 0
 3-21G
 ****


