%nproc=1
%NoSave
%Mem=1900MB
#P OB98/GEN NMR

erre ene a

0 1
  C      120.163    -516.589    -242.140
  O      120.631    -515.470    -241.369
  P      119.985    -514.014    -241.623
  C      119.876    -511.736    -240.333
  O      120.446    -513.038    -240.437
  C      120.222    -511.115    -238.976
  O      119.591    -511.866    -237.904
  C      121.705    -511.112    -238.637
  O      122.405    -510.098    -239.335
  C      121.669    -510.903    -237.132
  O      121.522    -509.508    -236.813
  C      120.408    -511.694    -236.731
  N      120.717    -512.971    -236.098
  C      121.400    -512.920    -234.888
  O      121.792    -511.875    -234.377
  N      121.654    -514.129    -234.291
  C      121.355    -515.364    -234.813
  O      121.620    -516.406    -234.237
  C      120.700    -515.352    -236.136
  C      120.423    -514.178    -236.708
  O      118.441    -514.269    -241.268
  O      120.130    -513.477    -243.008
  H      121.355    -509.460    -235.851
  H      117.889    -513.647    -241.768
  H      122.116    -514.115    -233.403
  H      120.472    -516.307    -236.593
  H      119.943    -514.159    -237.683
  H      119.799    -511.099    -236.027
  H      122.586    -511.248    -236.631
  H      122.137    -512.093    -238.852
  H      119.818    -510.093    -238.960
  H      118.789    -511.814    -240.435
  H      120.267    -511.117    -241.146
  P      123.013    -510.493    -240.769
  C      124.457    -508.921    -242.289
  O      124.228    -509.480    -241.006
  O      121.850    -509.979    -241.747
  O      123.333    -511.946    -240.887
  H      121.401    -509.182    -241.401
  H      123.519    -508.772    -242.826
  H      125.105    -509.600    -242.864
  H      124.965    -507.957    -242.165
  H      120.693    -517.471    -241.847
  H      120.331    -516.401    -243.180
  H      119.116    -516.728    -241.967

 3  4  5  6  7  8  9  10  11  12  13  23  28  29  30  31  32 0
 6-311+G(2d,p)
 ****
 33  34 0
 6-311+G(2d,p)
 ****
 1  2  14  15  16  17  18  19  20  21  22  24  25  26 0
 3-21G
 ****
 27  35  36  37  38  39  40  41  42  43  44  45 0
 3-21G
 ****


