%nproc=1
%NoSave
%Mem=1900MB
#P OB98/GEN NMR

erre ene a

0 1
  C     -282.794     874.646     -50.524
  O     -283.084     873.917     -51.724
  P     -284.388     872.985     -51.729
  C     -284.636     872.544     -54.276
  O     -284.316     872.004     -52.996
  C     -283.522     873.465     -54.792
  O     -282.211     872.861     -54.576
  C     -283.628     873.778     -56.282
  O     -283.077     875.076     -56.512
  C     -282.697     872.748     -56.903
  O     -282.309     873.109     -58.222
  C     -281.577     872.732     -55.860
  N     -277.853     870.377     -58.326
  C     -278.441     871.608     -58.558
  N     -277.933     872.334     -59.573
  N     -279.432     872.083     -57.849
  C     -279.813     871.262     -56.837
  C     -279.319     870.017     -56.521
  C     -278.239     869.492     -57.328
  O     -277.697     868.404     -57.180
  N     -279.985     869.479     -55.444
  C     -280.881     870.400     -55.125
  N     -280.792     871.508     -55.919
  O     -285.557     874.012     -52.115
  O     -284.665     872.320     -50.419
  H     -283.112     873.418     -58.692
  H     -286.109     874.185     -51.337
  H     -277.101     870.056     -58.905
  H     -281.610     870.312     -54.335
  H     -280.878     873.565     -55.988
  H     -283.201     871.776     -56.954
  H     -277.139     872.050     -60.127
  H     -284.636     873.738     -56.697
  H     -278.315     873.259     -59.738
  H     -283.540     874.400     -54.218
  H     -285.574     873.107     -54.225
  H     -284.820     871.715     -54.972
  P     -284.078     876.319     -56.408
  C     -282.311     878.211     -56.248
  O     -283.299     877.584     -57.019
  O     -284.132     876.636     -54.838
  O     -285.444     876.073     -56.967
  H     -284.970     877.078     -54.610
  H     -281.321     877.911     -56.614
  H     -282.383     877.943     -55.184
  H     -282.407     879.288     -56.342
  H     -281.903     875.221     -50.663
  H     -282.653     873.960     -49.715
  H     -283.610     875.301     -50.299

 3  4  5  6  7  8  9  10  11  12  23  26  30  31 0
 6-311+G(2d,p)
 ****
 33  35  36  37  38 0
 6-311+G(2d,p)
 ****
 1  2  13  14  15  16  17  18  19  20  21  22  24  25 0
 3-21G
 ****
 27  28  29  32  34  39  40  41  42  43  44  45  46  47  48  49 0
 3-21G
 ****


