%nproc=1
%NoSave
%Mem=1900MB
#P OB98/GEN NMR

erre ene a

0 1
  C     -182.218     -21.490      63.983
  O     -181.647     -20.196      63.898
  P     -181.662     -19.374      62.518
  C     -179.379     -18.165      62.604
  O     -180.782     -18.065      62.807
  C     -178.696     -16.878      63.060
  O     -179.094     -15.790      62.203
  C     -179.050     -16.442      64.476
  O     -178.364     -17.227      65.438
  C     -178.661     -14.970      64.430
  O     -177.242     -14.824      64.588
  C     -179.071     -14.578      62.995
  N     -180.356     -13.891      62.940
  C     -180.358     -12.542      63.309
  O     -179.319     -11.976      63.650
  N     -181.539     -11.845      63.249
  C     -182.628     -12.445      62.879
  N     -183.755     -11.690      62.774
  C     -182.681     -13.879      62.536
  C     -181.521     -14.530      62.582
  O     -183.021     -19.102      61.967
  O     -180.723     -20.214      61.539
  H     -177.047     -13.870      64.506
  H     -181.204     -20.917      61.037
  H     -183.615     -14.338      62.245
  H     -181.472     -15.581      62.325
  H     -178.306     -13.936      62.544
  H     -179.148     -14.367      65.202
  H     -180.130     -16.534      64.644
  H     -177.611     -17.013      62.961
  H     -183.635     -10.685      62.847
  H     -179.192     -18.312      61.534
  H     -184.551     -12.002      62.230
  H     -178.996     -19.032      63.151
  P     -179.249     -18.094      66.455
  C     -177.702     -17.243      68.354
  O     -178.315     -18.360      67.736
  O     -179.351     -19.519      65.733
  O     -180.592     -17.516      66.752
  H     -180.217     -19.615      65.294
  H     -177.308     -17.559      69.324
  H     -178.426     -16.440      68.513
  H     -176.872     -16.885      67.738
  H     -182.106     -21.864      64.979
  H     -181.721     -22.145      63.298
  H     -183.258     -21.438      63.736

 3  4  5  6  7  8  9  10  11  12  13  23  27  28  29  30  32 0
 6-311+G(2d,p)
 ****
 34  35 0
 6-311+G(2d,p)
 ****
 1  2  14  15  16  17  18  19  20  21  22  24  25  26 0
 3-21G
 ****
 31  33  36  37  38  39  40  41  42  43  44  45  46 0
 3-21G
 ****


