%nproc=1
%NoSave
%Mem=1900MB
#P OB98/GEN NMR

erre ene a

0 1
  C      -14.685     -41.046      70.377
  O      -15.132     -42.345      70.710
  H      -14.339     -40.552      71.290
  H      -15.507     -40.460      69.957
  H      -13.855     -41.090      69.668
  P      -15.603     -43.325      69.532
  C      -13.439     -44.708      69.651
  O      -14.268     -43.889      68.839
  C      -12.169     -45.100      68.897
  O      -11.574     -43.903      68.334
  C      -11.117     -45.779      69.779
  O      -10.478     -46.802      69.015
  C      -10.128     -44.666      70.068
  O       -8.819     -45.162      70.343
  C      -10.208     -43.834      68.789
  N       -6.268     -40.681      68.993
  C       -6.325     -42.016      68.644
  N       -5.156     -42.611      68.326
  N       -7.432     -42.710      68.614
  C       -8.529     -41.985      68.942
  C       -8.603     -40.661      69.306
  C       -7.368     -39.907      69.349
  O       -7.254     -38.728      69.662
  N       -9.895     -40.296      69.592
  C      -10.598     -41.398      69.404
  N       -9.813     -42.453      69.020
  O      -16.597     -42.748      68.577
  O      -16.186     -44.601      70.299
  H       -8.861     -45.617      71.212
  H      -17.160     -44.569      70.331
  H       -5.387     -40.197      69.008
  H      -11.668     -41.489      69.539
  H       -9.558     -44.223      67.996
  H      -10.466     -44.087      70.936
  H       -4.267     -42.135      68.310
  H      -11.537     -46.205      70.695
  H       -5.175     -43.585      68.043
  H      -12.450     -45.742      68.054
  H      -14.002     -45.609      69.918
  H      -13.180     -44.168      70.568
  P      -11.159     -48.251      68.943
  C      -11.385     -48.090      66.382
  O      -12.058     -48.317      67.616
  O      -11.834     -48.710      70.193
  O       -9.923     -49.205      68.570
  H      -10.083     -50.090      68.951
  H      -12.085     -48.160      65.576
  H      -10.619     -48.825      66.253
  H      -10.946     -47.114      66.390

 6  7  8  9  10  11  12  13  14  15  26  29  33  34 0
 6-311+G(2d,p)
 ****
 36  38  39  40  41 0
 6-311+G(2d,p)
 ****
 1  2  3  4  5  16  17  18  19  20  21  22  23  24  25 0
 3-21G
 ****
 27  28  30  31  32  35  37  42  43  44  45  46  47 0
 3-21G
 ****
 48  49 0
 3-21G
 ****


