%nproc=1
%NoSave
%Mem=1900MB
#P OB98/GEN NMR

erre ene a

0 1
  C      -78.769    -613.610    -191.980
  O      -77.937    -613.519    -190.841
  P      -78.144    -612.322    -189.794
  C      -79.559    -613.668    -188.119
  O      -79.538    -612.577    -189.040
  C      -79.616    -613.137    -186.682
  O      -80.782    -612.302    -186.506
  C      -79.741    -614.224    -185.630
  O      -78.491    -614.859    -185.418
  C      -80.258    -613.428    -184.432
  O      -79.179    -612.763    -183.760
  C      -81.183    -612.406    -185.121
  N      -85.280    -612.480    -182.089
  C      -83.978    -612.206    -181.831
  N      -82.933    -612.244    -182.687
  C      -83.341    -612.641    -183.909
  C      -84.630    -612.983    -184.307
  C      -85.639    -612.868    -183.340
  N      -86.974    -613.090    -183.583
  N      -84.640    -613.374    -185.628
  C      -83.389    -613.259    -186.020
  N      -82.585    -612.764    -185.041
  O      -77.973    -610.947    -190.354
  O      -77.063    -612.611    -188.654
  H      -78.696    -612.235    -184.435
  H      -76.437    -611.867    -188.599
  H      -83.750    -611.911    -180.819
  H      -83.019    -613.523    -187.019
  H      -81.073    -611.403    -184.682
  H      -80.760    -614.054    -183.695
  H      -80.496    -614.955    -185.927
  H      -78.733    -612.515    -186.506
  H      -78.646    -614.245    -188.259
  H      -87.620    -612.836    -182.861
  H      -87.285    -613.083    -184.559
  H      -80.420    -614.307    -188.320
  P      -78.387    -616.452    -185.446
  C      -77.062    -616.318    -187.634
  O      -78.184    -616.889    -186.979
  O      -79.467    -617.183    -184.714
  O      -76.956    -616.747    -184.797
  H      -76.993    -617.606    -184.310
  H      -77.292    -615.290    -187.917
  H      -76.859    -616.899    -188.534
  H      -76.185    -616.331    -186.995
  H      -78.488    -614.464    -192.560
  H      -78.661    -612.725    -192.572
  H      -79.788    -613.709    -191.670

 3  4  5  6  7  8  9  10  11  12  22  25  29  30  31  32 0
 6-311+G(2d,p)
 ****
 33  36  37 0
 6-311+G(2d,p)
 ****
 1  2  13  14  15  16  17  18  19  20  21  23  24  26 0
 3-21G
 ****
 27  28  34  35  38  39  40  41  42  43  44  45  46  47  48 0
 3-21G
 ****


