%nproc=1
%NoSave
%Mem=1900MB
#P OB98/GEN NMR

erre ene a

0 1
  C      300.777    -216.129     263.253
  O      300.130    -214.954     263.710
  P      299.738    -214.784     265.254
  C      297.276    -215.379     265.740
  O      298.593    -215.881     265.524
  C      296.673    -214.841     264.441
  O      296.858    -215.790     263.370
  C      295.175    -214.577     264.513
  O      294.911    -213.372     265.209
  C      294.810    -214.546     263.033
  O      295.083    -213.264     262.452
  C      295.753    -215.625     262.445
  N      295.071    -216.883     262.190
  C      294.127    -216.869     261.152
  O      293.899    -215.828     260.538
  N      293.440    -218.024     260.868
  C      293.655    -219.092     261.578
  N      292.934    -220.203     261.265
  C      294.615    -219.141     262.703
  C      295.280    -218.012     262.952
  O      299.406    -213.394     265.682
  O      301.004    -215.403     266.019
  H      294.462    -212.636     262.877
  H      301.785    -214.789     265.986
  H      294.749    -220.049     263.271
  H      296.000    -217.959     263.760
  H      296.194    -215.273     261.501
  H      293.748    -214.761     262.865
  H      294.671    -215.427     264.996
  H      297.208    -213.916     264.178
  H      292.265    -220.120     260.505
  H      297.331    -214.575     266.477
  H      292.994    -221.071     261.774
  H      296.647    -216.181     266.156
  P      293.421    -213.049     265.707
  C      291.948    -211.346     264.468
  O      292.558    -212.626     264.422
  O      293.327    -212.122     266.876
  O      292.828    -214.492     266.080
  H      292.356    -214.427     266.931
  H      291.690    -211.047     263.445
  H      292.629    -210.604     264.891
  H      291.037    -211.399     265.065
  H      300.953    -216.053     262.200
  H      300.156    -216.978     263.450
  H      301.710    -216.244     263.764

 3  4  5  6  7  8  9  10  11  12  13  23  27  28  29  30  32 0
 6-311+G(2d,p)
 ****
 34  35 0
 6-311+G(2d,p)
 ****
 1  2  14  15  16  17  18  19  20  21  22  24  25  26 0
 3-21G
 ****
 31  33  36  37  38  39  40  41  42  43  44  45  46 0
 3-21G
 ****


