%nproc=1
%NoSave
%Mem=1900MB
#P OB98/GEN NMR

erre ene a

0 1
  C       82.917     184.928    -651.837
  O       83.932     184.015    -651.471
  H       83.283     185.542    -652.664
  H       82.672     185.577    -650.993
  H       82.026     184.386    -652.163
  P       83.633     183.090    -650.190
  C       81.603     181.946    -651.360
  O       82.059     182.779    -650.307
  C       80.572     180.946    -650.829
  O       81.201     179.982    -649.960
  C       79.459     181.580    -649.993
  O       78.466     182.224    -650.772
  C       78.921     180.340    -649.302
  O       78.140     179.568    -650.240
  C       80.234     179.615    -648.938
  N       80.731     179.973    -647.608
  C       80.289     179.186    -646.534
  O       79.517     178.251    -646.724
  N       80.703     179.497    -645.263
  C       81.505     180.496    -645.078
  N       81.881     180.769    -643.800
  C       82.010     181.345    -646.174
  C       81.589     181.031    -647.396
  O       83.696     184.120    -648.964
  O       84.498     181.884    -650.032
  H       77.368     180.113    -650.469
  H       83.379     183.682    -648.136
  H       82.672     182.182    -645.968
  H       81.916     181.612    -648.258
  H       80.110     178.524    -648.981
  H       78.272     180.562    -648.460
  H       79.863     182.259    -649.234
  H       80.165     180.404    -651.690
  H       81.473     180.203    -643.062
  H       82.465     181.409    -651.769
  H       82.379     181.608    -643.530
  H       81.150     182.549    -652.149
  P       77.488     183.255    -650.016
  C       78.607     185.461    -650.842
  O       78.345     184.589    -649.752
  O       77.346     182.616    -648.561
  O       76.165     183.464    -650.680
  H       76.454     182.782    -648.193
  H       79.184     186.295    -650.501
  H       77.681     185.811    -651.249
  H       79.153     184.934    -651.597

 6  7  8  9  10  11  12  13  14  15  16  26  30  31  32  33  35 0
 6-311+G(2d,p)
 ****
 37  38 0
 6-311+G(2d,p)
 ****
 1  2  3  4  5  17  18  19  20  21  22  23  24  25 0
 3-21G
 ****
 27  28  29  34  36  39  40  41  42  43  44  45  46 0
 3-21G
 ****


