%nproc=1
%NoSave
%Mem=1900MB
#P OB98/GEN NMR

erre ene a

0 1
  C      138.697     -70.400     -80.586
  O      138.767     -68.992     -80.745
  P      140.175     -68.217     -80.759
  C      139.870     -67.530     -78.284
  O      140.671     -68.211     -79.234
  C      140.355     -66.088     -78.117
  O      139.350     -65.343     -77.379
  C      141.682     -65.951     -77.362
  O      142.387     -64.844     -77.939
  C      141.236     -65.623     -75.951
  O      142.249     -64.979     -75.190
  C      140.000     -64.761     -76.230
  N      139.093     -64.696     -75.089
  C      139.449     -63.871     -74.021
  O      140.504     -63.240     -74.035
  N      138.594     -63.775     -72.951
  C      137.525     -64.506     -72.910
  N      136.681     -64.330     -71.858
  C      137.166     -65.471     -73.966
  C      137.973     -65.495     -75.022
  O      140.146     -66.878     -81.412
  O      141.188     -69.251     -81.432
  H      142.696     -64.328     -75.764
  H      141.180     -69.212     -82.421
  H      136.276     -66.077     -73.875
  H      137.777     -66.154     -75.857
  H      140.303     -63.750     -76.520
  H      140.963     -66.550     -75.430
  H      142.302     -66.849     -77.430
  H      140.431     -65.631     -79.112
  H      136.870     -63.541     -71.248
  H      139.960     -68.043     -77.323
  H      135.706     -64.605     -71.916
  H      138.820     -67.560     -78.595
  P      143.744     -65.141     -78.744
  C      145.284     -64.263     -76.849
  O      144.921     -65.347     -77.674
  O      144.089     -63.689     -79.343
  O      143.654     -66.138     -79.852
  H      144.627     -63.800     -80.148
  H      146.092     -64.586     -76.185
  H      144.439     -63.945     -76.237
  H      145.645     -63.426     -77.452
  H      137.673     -70.711     -80.605
  H      139.136     -70.675     -79.650
  H      139.229     -70.876     -81.383

 3  4  5  6  7  8  9  10  11  12  13  23  27  28  29  30  32 0
 6-311+G(2d,p)
 ****
 34  35 0
 6-311+G(2d,p)
 ****
 1  2  14  15  16  17  18  19  20  21  22  24  25  26 0
 3-21G
 ****
 31  33  36  37  38  39  40  41  42  43  44  45  46 0
 3-21G
 ****


