%nproc=1
%NoSave
%Mem=1900MB
#P OB98/GEN NMR

erre ene a

0 1
  C      591.257    -533.771     771.793
  O      592.307    -532.891     772.202
  P      592.659    -532.856     773.771
  C      595.087    -533.725     773.451
  O      593.809    -533.937     774.042
  C      595.989    -534.928     773.717
  O      595.553    -536.100     773.000
  C      597.432    -534.706     773.275
  O      598.118    -533.861     774.182
  C      597.948    -536.144     773.237
  O      598.270    -536.596     774.568
  C      596.721    -536.906     772.717
  N      598.830    -539.871     769.121
  C      598.979    -539.841     770.468
  N      598.380    -539.016     771.351
  C      597.548    -538.167     770.726
  C      597.302    -538.080     769.369
  C      597.982    -538.982     768.541
  N      597.853    -539.009     767.172
  N      596.384    -537.071     769.103
  C      596.113    -536.555     770.281
  N      596.779    -537.183     771.287
  O      591.361    -533.500     774.448
  O      592.930    -531.483     774.297
  H      599.036    -536.067     774.868
  H      590.847    -532.818     774.911
  H      599.656    -540.576     770.880
  H      595.444    -535.712     770.444
  H      596.580    -537.868     773.226
  H      598.844    -536.259     772.626
  H      597.458    -534.275     772.266
  H      595.964    -535.144     774.790
  H      595.547    -532.819     773.868
  H      598.449    -539.634     766.649
  H      597.298    -538.294     766.724
  H      594.954    -533.558     772.379
  P      598.262    -532.308     773.793
  C      596.880    -531.604     775.843
  O      596.947    -531.632     774.427
  O      597.915    -532.335     772.229
  O      599.557    -531.678     774.170
  H      597.133    -532.879     772.038
  H      595.966    -531.096     776.141
  H      597.726    -531.045     776.246
  H      596.876    -532.618     776.243
  H      591.124    -533.699     770.734
  H      590.348    -533.495     772.286
  H      591.513    -534.777     772.053

 3  4  5  6  7  8  9  10  11  12  22  25  29  30  31  32 0
 6-311+G(2d,p)
 ****
 33  36  37 0
 6-311+G(2d,p)
 ****
 1  2  13  14  15  16  17  18  19  20  21  23  24  26 0
 3-21G
 ****
 27  28  34  35  38  39  40  41  42  43  44  45  46  47  48 0
 3-21G
 ****


