%nproc=1
%NoSave
%Mem=1900MB
#P OB98/GEN NMR

erre ene a

0 1
  C      357.586    -165.989    -401.836
  O      358.575    -166.968    -402.078
  H      358.059    -165.001    -401.847
  H      357.126    -166.152    -400.860
  H      356.825    -166.024    -402.622
  P      358.092    -168.496    -402.105
  C      358.707    -170.639    -400.764
  O      358.843    -169.226    -400.881
  C      359.896    -171.223    -400.000
  O      361.126    -170.855    -400.673
  C      359.995    -170.733    -398.538
  O      360.442    -171.826    -397.716
  C      361.099    -169.688    -398.609
  O      361.718    -169.482    -397.345
  C      362.005    -170.302    -399.670
  N      366.604    -168.285    -399.221
  C      365.999    -169.308    -398.517
  N      366.726    -169.879    -397.527
  N      364.784    -169.730    -398.745
  C      364.183    -169.085    -399.779
  C      364.667    -168.056    -400.547
  C      366.009    -167.584    -400.268
  O      366.587    -166.675    -400.850
  N      363.734    -167.653    -401.476
  C      362.685    -168.439    -401.259
  N      362.917    -169.316    -400.243
  O      358.825    -169.102    -403.396
  O      356.613    -168.710    -402.150
  H      362.077    -170.342    -397.039
  H      358.297    -169.820    -403.795
  H      367.536    -167.994    -399.003
  H      361.754    -168.401    -401.814
  H      362.626    -171.114    -399.271
  H      360.676    -168.732    -398.950
  H      367.677    -169.625    -397.313
  H      359.062    -170.333    -398.146
  H      366.308    -170.635    -396.992
  H      359.828    -172.322    -400.038
  H      358.667    -171.076    -401.768
  H      357.774    -170.866    -400.236
  P      359.369    -172.497    -396.734
  C      358.186    -171.689    -394.563
  O      359.378    -171.687    -395.341
  O      360.059    -173.904    -396.351
  O      358.027    -172.711    -397.347
  H      359.586    -174.631    -396.791
  H      358.340    -171.115    -393.673
  H      357.934    -172.695    -394.300
  H      357.388    -171.258    -395.131

 6  7  8  9  10  11  12  13  14  15  26  29  33  34 0
 6-311+G(2d,p)
 ****
 36  38  39  40  41 0
 6-311+G(2d,p)
 ****
 1  2  3  4  5  16  17  18  19  20  21  22  23  24  25 0
 3-21G
 ****
 27  28  30  31  32  35  37  42  43  44  45  46  47 0
 3-21G
 ****
 48  49 0
 3-21G
 ****


