%nproc=1
%NoSave
%Mem=1900MB
#P OB98/GEN NMR

erre ene a

0 1
  C     -273.504     184.658    -111.781
  O     -272.103     184.806    -111.651
  H     -273.995     185.642    -111.752
  H     -273.729     184.184    -112.740
  H     -273.893     184.029    -110.964
  P     -271.585     185.586    -110.349
  C     -272.220     187.876    -109.304
  O     -272.120     187.101    -110.489
  C     -271.846     189.319    -109.577
  O     -272.665     189.865    -110.647
  C     -272.038     190.277    -108.411
  O     -270.980     190.179    -107.470
  C     -272.027     191.609    -109.125
  O     -270.672     192.012    -109.392
  C     -272.742     191.296    -110.448
  N     -276.026     195.243    -110.791
  C     -274.668     195.182    -110.797
  N     -273.866     194.100    -110.687
  C     -274.592     192.981    -110.584
  C     -275.979     192.868    -110.541
  C     -276.708     194.078    -110.652
  N     -278.090     194.116    -110.616
  N     -276.368     191.558    -110.427
  C     -275.245     190.875    -110.397
  N     -274.137     191.692    -110.466
  O     -270.005     185.721    -110.604
  O     -271.878     184.921    -109.047
  H     -270.275     192.275    -108.531
  H     -269.544     185.654    -109.751
  H     -274.170     196.136    -110.905
  H     -275.180     189.793    -110.315
  H     -272.238     191.756    -111.302
  H     -272.496     192.415    -108.558
  H     -273.021     190.122    -107.941
  H     -270.793     189.347    -109.928
  H     -271.539     187.476    -108.540
  H     -278.547     194.972    -110.896
  H     -278.598     193.242    -110.530
  H     -273.255     187.813    -108.928
  P     -271.224     190.820    -106.007
  C     -271.521     193.259    -105.169
  O     -271.039     192.408    -106.209
  O     -269.914     190.394    -105.201
  O     -272.485     190.378    -105.319
  H     -270.105     190.371    -104.245
  H     -271.336     194.280    -105.429
  H     -271.015     193.027    -104.255
  H     -272.573     193.108    -105.043

 6  7  8  9  10  11  12  13  14  15  25  28  32  33  34  35 0
 6-311+G(2d,p)
 ****
 36  39  40 0
 6-311+G(2d,p)
 ****
 1  2  3  4  5  16  17  18  19  20  21  22  23  24 0
 3-21G
 ****
 26  27  29  30  31  37  38  41  42  43  44  45  46  47  48 0
 3-21G
 ****


