%nproc=1
%NoSave
%Mem=1900MB
#P OB98/GEN NMR

erre ene a

0 1
  C      -71.352    -546.749     665.742
  O      -72.059    -545.657     666.290
  H      -70.992    -546.476     664.746
  H      -72.025    -547.607     665.647
  H      -70.496    -547.016     666.368
  P      -72.335    -545.676     667.871
  C      -70.405    -544.008     668.366
  O      -70.940    -545.307     668.582
  C      -70.490    -543.176     669.646
  O      -69.673    -543.816     670.671
  C      -69.991    -541.729     669.491
  O      -70.805    -540.870     670.301
  C      -68.602    -541.783     670.101
  O      -68.159    -540.508     670.545
  C      -68.827    -542.789     671.224
  N      -65.561    -542.458     675.022
  C      -66.837    -541.941     674.889
  N      -67.297    -541.163     675.891
  N      -67.600    -542.166     673.849
  C      -67.025    -542.976     672.924
  C      -65.777    -543.546     672.940
  C      -64.933    -543.275     674.086
  O      -63.790    -543.686     674.255
  N      -65.543    -544.250     671.785
  C      -66.646    -544.091     671.064
  N      -67.571    -543.324     671.717
  O      -72.508    -547.239     668.172
  O      -73.512    -544.884     668.324
  H      -68.180    -539.892     669.784
  H      -73.456    -547.474     668.159
  H      -65.012    -542.245     675.835
  H      -66.808    -544.487     670.075
  H      -69.345    -542.349     672.089
  H      -67.885    -542.167     669.369
  H      -66.785    -540.971     676.736
  H      -69.990    -541.369     668.454
  H      -68.245    -540.813     675.823
  H      -71.525    -543.193     670.008
  H      -70.981    -543.510     667.581
  H      -69.366    -544.098     668.037
  P      -72.195    -540.350     669.686
  C      -73.369    -542.621     670.181
  O      -73.056    -541.622     669.222
  O      -71.751    -539.681     668.301
  O      -72.913    -539.376     670.561
  H      -72.317    -538.914     668.106
  H      -73.943    -543.395     669.716
  H      -73.936    -542.186     670.977
  H      -72.464    -543.035     670.573

 6  7  8  9  10  11  12  13  14  15  26  29  33  34 0
 6-311+G(2d,p)
 ****
 36  38  39  40  41 0
 6-311+G(2d,p)
 ****
 1  2  3  4  5  16  17  18  19  20  21  22  23  24  25 0
 3-21G
 ****
 27  28  30  31  32  35  37  42  43  44  45  46  47 0
 3-21G
 ****
 48  49 0
 3-21G
 ****


