%nproc=1
%NoSave
%Mem=1900MB
#P OB98/GEN NMR

erre ene a

0 1
  C     -158.214    -887.414     528.916
  O     -158.212    -888.218     530.084
  H     -157.432    -887.781     528.240
  H     -158.011    -886.371     529.162
  H     -159.177    -887.496     528.409
  P     -159.082    -887.724     531.339
  C     -158.113    -886.823     533.554
  O     -158.132    -886.698     532.139
  C     -156.723    -886.553     534.128
  O     -155.808    -887.612     533.776
  C     -156.070    -885.293     533.585
  O     -156.690    -884.088     533.973
  C     -154.603    -885.517     533.946
  O     -154.314    -885.165     535.298
  C     -154.477    -887.046     533.760
  N     -153.760    -887.406     532.541
  C     -152.403    -887.066     532.499
  O     -151.820    -886.488     533.429
  N     -151.735    -887.402     531.366
  C     -152.283    -887.977     530.256
  O     -151.627    -888.239     529.248
  C     -153.730    -888.272     530.332
  C     -154.388    -887.986     531.456
  O     -159.653    -888.815     532.204
  O     -160.185    -886.763     530.697
  H     -153.367    -885.344     535.440
  H     -160.926    -886.593     531.329
  H     -150.748    -887.181     531.317
  H     -154.193    -888.727     529.464
  H     -155.455    -888.190     531.536
  H     -153.942    -887.496     534.614
  H     -153.923    -884.941     533.308
  H     -156.117    -885.316     532.488
  H     -156.798    -886.528     535.221
  H     -158.410    -887.851     533.807
  H     -158.842    -886.131     533.992
  P     -157.403    -883.082     532.964
  C     -156.632    -881.458     531.064
  O     -156.306    -882.547     531.915
  O     -158.344    -882.085     533.552
  O     -158.275    -884.106     532.055
  H     -159.096    -883.632     531.802
  H     -155.796    -881.234     530.435
  H     -156.872    -880.601     531.658
  H     -157.474    -881.719     530.458

 6  7  8  9  10  11  12  13  14  15  16  26  31  32  33  34  35 0
 6-311+G(2d,p)
 ****
 36  37 0
 6-311+G(2d,p)
 ****
 1  2  3  4  5  17  18  19  20  21  22  23  24  25 0
 3-21G
 ****
 27  28  29  30  38  39  40  41  42  43  44  45 0
 3-21G
 ****


