%nproc=1
%NoSave
%Mem=1900MB
#P OB98/GEN NMR

erre ene a

0 1
  C     -299.647     438.070     -94.132
  O     -299.809     436.657     -93.960
  P     -298.559     435.863     -93.334
  C     -297.763     434.423     -95.351
  O     -297.521     435.553     -94.522
  C     -296.445     433.874     -95.891
  O     -295.878     434.743     -96.906
  C     -295.364     433.740     -94.824
  O     -295.610     432.622     -93.990
  C     -294.112     433.622     -95.697
  O     -293.976     432.285     -96.210
  C     -294.436     434.597     -96.847
  N     -290.574     437.599     -98.337
  C     -290.919     436.337     -98.675
  N     -291.959     435.605     -98.231
  C     -292.699     436.309     -97.355
  C     -292.472     437.605     -96.916
  C     -291.346     438.261     -97.439
  N     -290.984     439.545     -97.083
  N     -293.438     437.990     -96.017
  C     -294.217     436.938     -95.888
  N     -293.826     435.898     -96.689
  O     -299.179     434.428     -92.984
  O     -297.970     436.522     -92.135
  H     -293.891     431.682     -95.442
  H     -299.261     434.330     -92.015
  H     -290.268     435.844     -99.396
  H     -295.087     436.876     -95.234
  H     -294.118     434.200     -97.822
  H     -293.196     433.859     -95.153
  H     -295.315     434.654     -94.216
  H     -296.645     432.896     -96.351
  H     -298.419     434.702     -96.185
  H     -290.118     439.908     -97.450
  H     -291.503     440.012     -96.352
  H     -298.300     433.668     -94.771
  P     -296.234     432.896     -92.540
  C     -293.957     432.611     -91.386
  O     -295.010     433.508     -91.696
  O     -296.361     431.416     -91.960
  O     -297.489     433.708     -92.536
  H     -295.546     430.893     -92.113
  H     -293.176     433.159     -90.846
  H     -293.527     432.184     -92.305
  H     -294.328     431.806     -90.747
  H     -300.540     438.483     -94.553
  H     -298.823     438.257     -94.789
  H     -299.457     438.525     -93.183

 3  4  5  6  7  8  9  10  11  12  22  25  29  30  31  32 0
 6-311+G(2d,p)
 ****
 33  36  37 0
 6-311+G(2d,p)
 ****
 1  2  13  14  15  16  17  18  19  20  21  23  24  26 0
 3-21G
 ****
 27  28  34  35  38  39  40  41  42  43  44  45  46  47  48 0
 3-21G
 ****


