%nproc=1
%NoSave
%Mem=1900MB
#P OB98/GEN NMR

erre ene a

0 1
  C      160.735     -54.483     129.689
  O      160.031     -55.057     130.798
  P      160.783     -55.129     132.212
  C      159.267     -53.371     133.388
  O      160.576     -53.733     132.974
  C      159.266     -51.965     133.996
  O      159.749     -50.979     133.062
  C      157.887     -51.481     134.417
  O      157.522     -51.991     135.690
  C      158.112     -49.980     134.495
  O      158.764     -49.647     135.737
  C      159.061     -49.732     133.317
  N      155.362     -46.765     131.383
  C      155.763     -46.993     132.653
  N      156.744     -47.811     133.090
  C      157.348     -48.420     132.058
  C      157.048     -48.288     130.713
  C      156.001     -47.414     130.382
  N      155.598     -47.184     129.087
  N      157.877     -49.081     129.946
  C      158.674     -49.670     130.814
  N      158.387     -49.309     132.103
  O      162.330     -55.096     131.800
  O      160.456     -56.347     133.010
  H      159.521     -50.254     135.833
  H      162.849     -55.642     132.420
  H      155.224     -46.446     133.422
  H      159.468     -50.358     130.558
  H      159.822     -48.976     133.546
  H      157.178     -49.412     134.465
  H      157.138     -51.711     133.648
  H      159.936     -51.973     134.866
  H      158.890     -54.094     134.115
  H      154.858     -46.521     128.925
  H      156.087     -47.648     128.334
  H      158.595     -53.424     132.526
  P      156.437     -53.173     135.725
  C      158.296     -54.957     136.052
  O      157.218     -54.492     135.265
  O      155.490     -52.825     134.481
  O      155.673     -53.271     137.001
  H      154.582     -53.139     134.655
  H      158.506     -55.994     135.782
  H      158.054     -54.915     137.117
  H      159.185     -54.352     135.853
  H      160.110     -54.504     128.821
  H      161.625     -55.046     129.502
  H      160.995     -53.470     129.917

 3  4  5  6  7  8  9  10  11  12  22  25  29  30  31  32 0
 6-311+G(2d,p)
 ****
 33  36  37 0
 6-311+G(2d,p)
 ****
 1  2  13  14  15  16  17  18  19  20  21  23  24  26 0
 3-21G
 ****
 27  28  34  35  38  39  40  41  42  43  44  45  46  47  48 0
 3-21G
 ****


