%nproc=1
%NoSave
%Mem=1900MB
#P OB98/GEN NMR

erre ene a

0 1
  C      -35.837     -45.601     100.808
  O      -37.237     -45.453     100.702
  P      -37.894     -44.215      99.922
  C      -39.680     -45.451      98.546
  O      -39.427     -44.622      99.670
  C      -41.180     -45.587      98.280
  O      -41.761     -46.523      99.231
  C      -41.968     -44.274      98.383
  O      -43.021     -44.360      97.416
  C      -42.530     -44.340      99.789
  O      -43.637     -43.468      99.980
  C      -42.838     -45.839      99.906
  N      -42.973     -46.262     101.296
  C      -44.245     -46.150     101.866
  O      -45.167     -45.640     101.229
  N      -44.428     -46.564     103.161
  C      -43.409     -46.959     103.856
  N      -43.652     -47.364     105.133
  C      -42.029     -46.974     103.333
  C      -41.887     -46.631     102.055
  O      -37.156     -43.765      98.708
  O      -38.020     -43.085     101.047
  H      -43.968     -43.584     100.897
  H      -37.139     -42.663     101.213
  H      -41.204     -47.257     103.968
  H      -40.916     -46.612     101.581
  H      -43.768     -46.085      99.377
  H      -41.755     -44.054     100.510
  H      -41.359     -43.383      98.214
  H      -41.306     -46.021      97.280
  H      -44.615     -47.352     105.447
  H      -39.271     -46.444      98.759
  H      -42.945     -47.765     105.729
  H      -39.162     -45.059      97.666
  P      -43.369     -43.129      96.452
  C      -43.122     -44.505      94.309
  O      -44.001     -43.745      95.117
  O      -42.251     -42.164      96.230
  O      -44.622     -42.416      97.155
  H      -44.739     -41.523      96.779
  H      -43.711     -45.095      93.601
  H      -42.518     -45.184      94.919
  H      -42.463     -43.836      93.752
  H      -35.613     -46.487     101.364
  H      -35.426     -44.751     101.311
  H      -35.411     -45.677      99.829

 3  4  5  6  7  8  9  10  11  12  13  23  27  28  29  30  32 0
 6-311+G(2d,p)
 ****
 34  35 0
 6-311+G(2d,p)
 ****
 1  2  14  15  16  17  18  19  20  21  22  24  25  26 0
 3-21G
 ****
 31  33  36  37  38  39  40  41  42  43  44  45  46 0
 3-21G
 ****


