%nproc=1
%NoSave
%Mem=1900MB
#P OB98/GEN NMR

erre ene a

0 1
  C      140.364     225.139      -3.197
  O      141.435     224.229      -3.387
  P      141.273     222.949      -4.345
  C      142.052     224.243      -6.441
  O      142.323     223.185      -5.531
  C      143.337     225.007      -6.746
  O      143.778     225.703      -5.564
  C      144.509     224.130      -7.171
  O      144.365     223.704      -8.517
  C      145.681     225.064      -6.901
  O      145.821     226.014      -7.968
  C      145.223     225.785      -5.616
  N      145.825     225.231      -4.408
  C      147.199     225.432      -4.248
  O      147.851     226.054      -5.085
  N      147.806     224.948      -3.116
  C      147.110     224.303      -2.232
  N      147.750     223.907      -1.099
  C      145.672     224.020      -2.389
  C      145.099     224.513      -3.485
  O      139.878     222.675      -4.793
  O      141.936     221.750      -3.528
  H      146.503     226.654      -7.687
  H      141.305     221.284      -2.927
  H      145.137     223.466      -1.631
  H      144.041     224.367      -3.664
  H      145.465     226.852      -5.674
  H      146.638     224.543      -6.789
  H      144.581     223.250      -6.523
  H      143.116     225.753      -7.521
  H      148.685     224.272      -0.955
  H      141.330     224.924      -5.979
  H      147.238     223.665      -0.260
  H      141.612     223.830      -7.354
  P      145.264     222.469      -9.003
  C      143.704     220.454      -8.526
  O      144.233     221.340      -9.495
  O      145.866     221.893      -7.639
  O      146.330     222.831      -9.984
  H      146.788     222.191      -7.523
  H      142.861     219.920      -8.969
  H      143.352     221.002      -7.649
  H      144.465     219.725      -8.233
  H      140.671     225.916      -2.529
  H      139.525     224.621      -2.780
  H      140.088     225.566      -4.138

 3  4  5  6  7  8  9  10  11  12  13  23  27  28  29  30  32 0
 6-311+G(2d,p)
 ****
 34  35 0
 6-311+G(2d,p)
 ****
 1  2  14  15  16  17  18  19  20  21  22  24  25  26 0
 3-21G
 ****
 31  33  36  37  38  39  40  41  42  43  44  45  46 0
 3-21G
 ****


