%nproc=1
%NoSave
%Mem=1900MB
#P OB98/GEN NMR

erre ene a

0 1
  C      -92.417      75.870      11.218
  O      -91.033      75.933      11.556
  P      -90.537      77.107      12.527
  C      -90.177      79.660      12.425
  O      -90.608      78.497      11.727
  C      -89.968      80.830      11.449
  O      -88.854      80.515      10.571
  C      -91.155      81.120      10.523
  O      -92.158      82.026      10.975
  C      -90.457      81.796       9.345
  O      -90.254      83.192       9.635
  C      -89.107      81.088       9.271
  N      -87.168      79.779       4.721
  C      -87.017      80.884       5.483
  N      -87.570      81.155       6.683
  C      -88.338      80.134       7.095
  C      -88.583      78.946       6.429
  C      -87.959      78.782       5.181
  N      -88.120      77.662       4.400
  N      -89.432      78.141       7.161
  C      -89.708      78.843       8.242
  N      -89.062      80.048       8.256
  O      -89.264      76.853      13.261
  O      -91.764      77.246      13.553
  H      -89.782      83.232      10.487
  H      -91.411      77.436      14.444
  H      -86.370      81.655       5.073
  H      -90.368      78.520       9.034
  H      -88.285      81.779       9.054
  H      -91.049      81.749       8.427
  H      -91.626      80.188      10.190
  H      -89.709      81.731      12.018
  H      -89.243      79.448      12.949
  H      -87.673      77.643       3.498
  H      -88.753      76.934       4.700
  H      -90.924      79.881      13.188
  P      -93.308      81.562      11.988
  C      -95.500      80.167      11.681
  O      -94.286      80.628      11.128
  O      -93.989      82.665      12.721
  O      -92.544      80.515      12.925
  H      -92.281      79.693      12.478
  H      -96.109      79.739      10.881
  H      -96.053      80.987      12.144
  H      -95.295      79.390      12.423
  H      -92.588      75.038      10.568
  H      -92.705      76.774      10.723
  H      -92.997      75.751      12.109

 3  4  5  6  7  8  9  10  11  12  22  25  29  30  31  32 0
 6-311+G(2d,p)
 ****
 33  36  37 0
 6-311+G(2d,p)
 ****
 1  2  13  14  15  16  17  18  19  20  21  23  24  26 0
 3-21G
 ****
 27  28  34  35  38  39  40  41  42  43  44  45  46  47  48 0
 3-21G
 ****


