%nproc=1
%NoSave
%Mem=1900MB
#P OB98/GEN NMR

erre ene a

0 1
  C      -32.494    -216.963     130.918
  O      -31.969    -216.488     132.147
  P      -32.614    -216.944     133.542
  C      -34.788    -215.787     132.805
  O      -33.821    -215.931     133.841
  C      -35.169    -214.318     132.624
  O      -36.127    -214.215     131.544
  C      -35.803    -213.699     133.863
  O      -35.385    -212.335     133.967
  C      -37.294    -213.718     133.570
  O      -37.982    -212.687     134.298
  C      -37.305    -213.554     132.046
  N      -42.170    -212.816     130.582
  C      -41.267    -211.986     131.145
  N      -40.000    -212.254     131.532
  C      -39.676    -213.522     131.230
  C      -40.491    -214.486     130.652
  C      -41.797    -214.090     130.324
  N      -42.714    -214.937     129.738
  N      -39.814    -215.686     130.527
  C      -38.611    -215.442     131.002
  N      -38.476    -214.146     131.428
  O      -31.644    -217.100     134.663
  O      -33.364    -218.315     133.211
  H      -37.982    -212.951     135.242
  H      -33.267    -218.944     133.951
  H      -41.609    -210.966     131.312
  H      -37.814    -216.164     131.068
  H      -37.254    -212.498     131.753
  H      -37.715    -214.685     133.875
  H      -35.555    -214.236     134.785
  H      -34.273    -213.760     132.323
  H      -35.677    -216.358     133.083
  H      -43.584    -214.536     129.427
  H      -42.384    -215.829     129.389
  H      -34.386    -216.200     131.873
  P      -34.445    -211.981     135.224
  C      -36.496    -210.951     136.453
  O      -35.187    -210.767     135.961
  O      -33.023    -211.764     134.818
  O      -34.686    -213.258     136.162
  H      -35.556    -213.679     135.977
  H      -36.844    -210.007     136.882
  H      -36.502    -211.712     137.236
  H      -37.173    -211.243     135.643
  H      -31.933    -216.549     130.107
  H      -33.519    -216.668     130.830
  H      -32.426    -218.030     130.890

 3  4  5  6  7  8  9  10  11  12  22  25  29  30  31  32 0
 6-311+G(2d,p)
 ****
 33  36  37 0
 6-311+G(2d,p)
 ****
 1  2  13  14  15  16  17  18  19  20  21  23  24  26 0
 3-21G
 ****
 27  28  34  35  38  39  40  41  42  43  44  45  46  47  48 0
 3-21G
 ****


