%nproc=1
%NoSave
%Mem=1900MB
#P OB98/GEN NMR

erre ene a

0 1
  C       17.860    -355.147    -485.077
  O       18.257    -354.400    -483.916
  P       17.761    -352.862    -483.859
  C       20.064    -352.075    -484.794
  O       18.644    -352.025    -484.910
  C       20.719    -351.053    -485.724
  O       20.263    -351.165    -487.081
  C       20.445    -349.606    -485.310
  O       21.304    -349.244    -484.244
  C       20.751    -348.856    -486.599
  O       22.166    -348.603    -486.742
  C       20.286    -349.848    -487.684
  N       17.718    -346.948    -490.981
  C       19.022    -346.850    -490.540
  N       19.770    -345.870    -491.092
  N       19.574    -347.662    -489.666
  C       18.713    -348.601    -489.200
  C       17.389    -348.812    -489.573
  C       16.810    -347.908    -490.541
  O       15.668    -347.966    -490.974
  N       16.864    -349.911    -488.929
  C       17.817    -350.282    -488.099
  N       18.978    -349.562    -488.259
  O       18.279    -352.361    -482.430
  O       16.280    -352.711    -484.003
  H       22.648    -349.456    -486.747
  H       17.519    -352.227    -481.835
  H       17.349    -346.294    -491.642
  H       17.727    -351.070    -487.360
  H       20.985    -349.884    -488.530
  H       20.260    -347.885    -486.633
  H       19.427    -345.212    -491.779
  H       19.391    -349.481    -485.044
  H       20.749    -345.788    -490.800
  H       21.813    -351.243    -485.713
  H       20.415    -353.088    -485.040
  H       20.339    -351.906    -483.749
  P       20.644    -348.971    -482.803
  C       21.682    -346.601    -482.640
  O       20.501    -347.381    -482.638
  O       21.817    -349.379    -481.782
  O       19.401    -349.756    -482.549
  H       21.439    -349.902    -481.059
  H       21.428    -345.598    -483.031
  H       22.463    -347.041    -483.253
  H       22.045    -346.487    -481.608
  H       18.242    -356.144    -485.007
  H       18.251    -354.676    -485.955
  H       16.792    -355.177    -485.134

 3  4  5  6  7  8  9  10  11  12  23  26  30  31 0
 6-311+G(2d,p)
 ****
 33  35  36  37  38 0
 6-311+G(2d,p)
 ****
 1  2  13  14  15  16  17  18  19  20  21  22  24  25 0
 3-21G
 ****
 27  28  29  32  34  39  40  41  42  43  44  45  46  47  48  49 0
 3-21G
 ****


