%nproc=1
%NoSave
%Mem=1900MB
#P OB98/GEN NMR

erre ene a

0 1
  C     -384.889    -112.112    -172.719
  O     -385.159    -110.987    -173.538
  P     -384.363    -110.768    -174.913
  C     -382.943    -108.706    -175.501
  O     -383.146    -109.775    -174.583
  C     -381.581    -108.053    -175.275
  O     -381.589    -107.382    -173.990
  C     -380.425    -109.048    -175.259
  O     -379.281    -108.436    -175.861
  C     -380.131    -109.263    -173.787
  O     -378.767    -109.664    -173.582
  C     -380.501    -107.896    -173.202
  N     -378.979    -108.348    -168.320
  C     -378.281    -108.262    -169.475
  N     -378.750    -108.171    -170.738
  C     -380.092    -108.112    -170.739
  C     -380.938    -108.181    -169.645
  C     -380.331    -108.309    -168.383
  N     -381.044    -108.380    -167.204
  N     -382.258    -108.118    -170.041
  C     -382.209    -107.994    -171.347
  N     -380.923    -107.974    -171.819
  O     -385.203    -110.355    -176.070
  O     -383.629    -112.162    -175.178
  H     -378.664    -110.553    -173.980
  H     -383.636    -112.374    -176.131
  H     -377.200    -108.277    -169.369
  H     -383.066    -107.925    -172.001
  H     -379.666    -107.188    -173.274
  H     -380.779    -110.057    -173.394
  H     -380.665    -109.985    -175.778
  H     -381.427    -107.287    -176.047
  H     -383.729    -107.960    -175.342
  H     -380.520    -108.345    -166.346
  H     -382.033    -108.177    -167.236
  H     -383.027    -109.084    -176.525
  P     -378.343    -109.411    -176.738
  C     -375.968    -110.197    -176.007
  O     -377.337    -110.064    -175.681
  O     -377.737    -108.703    -177.906
  O     -379.371    -110.575    -177.121
  H     -380.104    -110.636    -176.467
  H     -375.456    -110.697    -175.183
  H     -375.519    -109.211    -176.150
  H     -375.851    -110.796    -176.916
  H     -385.517    -112.081    -171.853
  H     -383.863    -112.095    -172.417
  H     -385.084    -113.009    -173.269

 3  4  5  6  7  8  9  10  11  12  22  25  29  30  31  32 0
 6-311+G(2d,p)
 ****
 33  36  37 0
 6-311+G(2d,p)
 ****
 1  2  13  14  15  16  17  18  19  20  21  23  24  26 0
 3-21G
 ****
 27  28  34  35  38  39  40  41  42  43  44  45  46  47  48 0
 3-21G
 ****


