%nproc=1
%NoSave
%Mem=1900MB
#P OB98/GEN NMR

erre ene a

0 1
  C      458.356     888.004     816.394
  O      457.002     888.283     816.052
  P      456.314     887.342     814.946
  C      455.850     885.760     816.952
  O      456.262     885.870     815.595
  C      454.366     885.466     817.039
  O      453.621     886.553     816.442
  C      453.916     884.211     816.304
  O      454.152     883.038     817.060
  C      452.423     884.476     816.143
  O      451.741     884.118     817.355
  C      452.382     886.001     815.929
  N      449.267     887.995     812.470
  C      449.060     887.760     813.817
  N      447.869     888.141     814.313
  N      449.954     887.205     814.603
  C      451.115     886.922     813.969
  C      451.434     887.097     812.642
  C      450.426     887.667     811.775
  O      450.532     887.835     810.559
  N      452.719     886.691     812.380
  C      453.188     886.302     813.548
  N      452.238     886.398     814.541
  O      457.432     887.210     813.824
  O      455.028     887.863     814.395
  H      451.866     883.158     817.487
  H      457.028     887.019     812.957
  H      448.559     888.445     811.914
  H      454.198     885.947     813.721
  H      451.563     886.456     816.509
  H      451.971     883.892     815.336
  H      447.195     888.682     813.793
  H      454.385     884.156     815.318
  H      447.708     888.021     815.307
  H      454.079     885.408     818.098
  H      456.059     886.699     817.482
  H      456.425     884.948     817.440
  P      454.386     881.682     816.226
  C      456.860     882.289     815.687
  O      455.558     882.028     815.181
  O      453.077     881.572     815.314
  O      454.588     880.469     817.063
  H      452.899     880.644     815.079
  H      457.091     881.672     816.554
  H      456.929     883.361     815.963
  H      457.587     882.090     814.901
  H      458.687     888.700     817.136
  H      458.970     888.093     815.522
  H      458.428     887.009     816.781

 3  4  5  6  7  8  9  10  11  12  23  26  30  31  33  0
 6-311+G(2d,p)
 ****
 35  36  37  38 0
 6-311+G(2d,p)
 ****
 1  2  13  14  15  16  17  18  19  20  21  22  24  25  27  28  29 0
 3-21G
 ****
 32  34  39  40  41  42  43  44  45  46  47  48  49 0
 3-21G
 ****


