%nproc=1
%NoSave
%Mem=1900MB
#P OB98/GEN NMR

erre ene a

0 1
  C      -28.182      51.274      62.673
  O      -27.267      51.704      63.661
  H      -27.643      50.878      61.808
  H      -28.805      50.481      63.093
  H      -28.825      52.103      62.365
  P      -26.274      52.895      63.250
  C      -27.493      54.892      64.371
  O      -27.176      54.219      63.162
  C      -27.528      56.399      64.139
  O      -26.237      56.863      63.694
  C      -28.519      56.858      63.075
  O      -29.844      56.918      63.579
  C      -27.977      58.244      62.763
  O      -28.397      59.171      63.782
  C      -26.460      58.021      62.846
  N      -25.704      59.914      58.155
  C      -26.305      60.428      59.248
  N      -26.449      59.873      60.469
  C      -25.873      58.661      60.507
  C      -25.205      58.013      59.482
  C      -25.133      58.687      58.253
  N      -24.572      58.121      57.120
  N      -24.762      56.771      59.895
  C      -25.174      56.666      61.141
  N      -25.843      57.784      61.557
  O      -25.936      52.560      61.719
  O      -25.039      53.007      64.078
  H      -28.332      60.063      63.393
  H      -25.085      52.086      61.675
  H      -26.733      61.418      59.126
  H      -25.016      55.804      61.774
  H      -25.943      58.867      63.313
  H      -28.328      58.637      61.804
  H      -28.456      56.238      62.173
  H      -27.739      56.882      65.101
  H      -26.736      54.660      65.127
  H      -24.980      58.460      56.253
  H      -24.410      57.123      57.188
  H      -28.467      54.539      64.723
  P      -31.047      56.902      62.518
  C      -30.893      54.320      62.535
  O      -30.952      55.499      61.743
  O      -30.574      57.972      61.427
  O      -32.387      57.247      63.069
  H      -31.258      58.661      61.323
  H      -30.833      53.464      61.896
  H      -31.773      54.252      63.140
  H      -30.029      54.356      63.165

 6  7  8  9  10  11  12  13  14  15  25  28  32  33  34  35 0
 6-311+G(2d,p)
 ****
 36  39  40 0
 6-311+G(2d,p)
 ****
 1  2  3  4  5  16  17  18  19  20  21  22  23  24 0
 3-21G
 ****
 26  27  29  30  31  37  38  41  42  43  44  45  46  47  48 0
 3-21G
 ****


