%nproc=1
%NoSave
%Mem=1900MB
#P OB98/GEN NMR

erre ene a

0 1
  C       85.182     536.692     179.731
  O       85.891     537.217     180.835
  H       85.760     535.869     179.304
  H       85.046     537.462     178.971
  H       84.210     536.313     180.055
  P       85.258     538.514     181.539
  C       83.303     537.095     182.531
  O       84.441     537.913     182.782
  C       83.420     535.788     183.300
  O       84.542     535.009     182.816
  C       83.662     535.948     184.802
  O       82.496     536.294     185.521
  C       84.150     534.552     185.139
  O       83.028     533.645     185.155
  C       85.079     534.269     183.948
  N       86.473     534.668     184.202
  C       87.292     533.717     184.822
  O       86.849     532.610     185.137
  N       88.593     534.056     185.111
  C       89.047     535.230     184.790
  N       90.339     535.508     185.101
  C       88.219     536.253     184.120
  C       86.959     535.908     183.859
  O       84.090     538.951     180.534
  O       86.218     539.606     181.886
  H       83.390     532.750     185.304
  H       83.538     539.658     180.947
  H       88.633     537.219     183.882
  H       86.292     536.609     183.364
  H       85.068     533.203     183.680
  H       84.620     534.482     186.116
  H       84.468     536.660     185.003
  H       82.510     535.203     183.105
  H       90.858     534.807     185.611
  H       83.257     536.900     181.454
  H       90.733     536.440     185.030
  H       82.393     537.618     182.837
  P       82.642     537.395     186.680
  C       82.649     539.595     185.282
  O       81.926     538.727     186.157
  O       84.201     537.765     186.636
  O       82.217     536.936     188.043
  H       84.533     537.969     187.530
  H       82.036     540.434     185.025
  H       82.916     539.063     184.393
  H       83.536     539.938     185.773

 6  7  8  9  10  11  12  13  14  15  16  26  30  31  32  33  35 0
 6-311+G(2d,p)
 ****
 37  38 0
 6-311+G(2d,p)
 ****
 1  2  3  4  5  17  18  19  20  21  22  23  24  25 0
 3-21G
 ****
 27  28  29  34  36  39  40  41  42  43  44  45  46 0
 3-21G
 ****


