%nproc=1
%NoSave
%Mem=1900MB
#P OB98/GEN NMR

erre ene a

0 1
  C      -90.302       2.595      98.547
  O      -89.897       2.261      97.235
  H      -91.177       1.994      98.807
  H      -90.571       3.653      98.603
  H      -89.498       2.377      99.255
  P      -88.687       3.122      96.619
  C      -90.059       3.752      94.492
  O      -89.429       4.198      95.684
  C      -91.417       4.428      94.334
  O      -92.200       4.283      95.540
  C      -91.351       5.931      94.076
  O      -91.014       6.259      92.739
  C      -92.783       6.314      94.408
  O      -93.653       5.905      93.337
  C      -93.024       5.473      95.679
  N      -92.689       6.189      96.913
  C      -93.660       7.066      97.413
  O      -94.731       7.216      96.830
  N      -93.375       7.786      98.549
  C      -92.236       7.629      99.149
  N      -92.014       8.370     100.268
  C      -91.192       6.709      98.666
  C      -91.480       6.028      97.558
  O      -88.029       2.126      95.552
  O      -87.726       3.699      97.603
  H      -93.651       4.930      93.332
  H      -87.361       2.610      95.007
  H      -90.252       6.621      99.192
  H      -90.762       5.330      97.143
  H      -94.069       5.144      95.740
  H      -92.924       7.388      94.537
  H      -90.679       6.431      94.782
  H      -91.956       3.910      93.531
  H      -92.724       9.037     100.540
  H      -90.183       2.666      94.554
  H      -91.108       8.431     100.715
  H      -89.433       3.991      93.625
  P      -89.620       7.019      92.498
  C      -91.004       9.010      91.547
  O      -89.954       8.583      92.408
  O      -89.251       6.631      90.991
  O      -88.529       6.652      93.454
  H      -88.285       6.551      90.880
  H      -91.099      10.074      91.601
  H      -91.923       8.554      91.852
  H      -90.779       8.723      90.541

 6  7  8  9  10  11  12  13  14  15  16  26  30  31  32  33  35 0
 6-311+G(2d,p)
 ****
 37  38 0
 6-311+G(2d,p)
 ****
 1  2  3  4  5  17  18  19  20  21  22  23  24  25 0
 3-21G
 ****
 27  28  29  34  36  39  40  41  42  43  44  45  46 0
 3-21G
 ****


