%nproc=1
%NoSave
%Mem=1900MB
#P OB98/GEN NMR

erre ene a

0 1
  C      207.192    -327.146     175.256
  O      208.018    -326.028     174.994
  H      207.489    -327.622     176.194
  H      206.159    -326.804     175.346
  H      207.257    -327.866     174.435
  P      209.582    -326.324     174.796
  C      210.949    -327.750     173.113
  O      209.682    -327.491     173.698
  C      211.072    -329.228     172.760
  O      211.048    -330.029     173.958
  C      209.948    -329.770     171.882
  O      210.144    -329.443     170.515
  C      210.097    -331.264     172.123
  O      211.184    -331.781     171.330
  C      210.465    -331.313     173.613
  N      207.766    -334.900     176.068
  C      208.900    -334.965     175.342
  N      209.571    -333.966     174.735
  C      208.963    -332.788     174.957
  C      207.814    -332.558     175.694
  C      207.197    -333.683     176.265
  N      205.994    -333.611     176.951
  N      207.483    -331.216     175.680
  C      208.407    -330.651     174.932
  N      209.325    -331.559     174.478
  O      209.981    -327.054     176.167
  O      210.429    -325.121     174.543
  H      210.943    -331.634     170.396
  H      210.372    -326.400     176.776
  H      209.328    -335.958     175.226
  H      208.450    -329.599     174.689
  H      211.219    -332.079     173.828
  H      209.202    -331.834     171.856
  H      208.967    -329.446     172.240
  H      212.048    -329.381     172.279
  H      211.741    -327.481     173.819
  H      205.443    -334.462     176.893
  H      205.497    -332.736     176.833
  H      211.052    -327.133     172.213
  P      208.862    -329.480     169.550
  C      206.638    -328.163     169.434
  O      207.743    -328.557     170.238
  O      208.307    -330.970     169.753
  O      209.140    -329.202     168.111
  H      208.253    -331.422     168.891
  H      205.974    -327.556     170.013
  H      206.118    -329.033     169.091
  H      206.991    -327.604     168.593

 6  7  8  9  10  11  12  13  14  15  25  28  32  33  34  35 0
 6-311+G(2d,p)
 ****
 36  39  40 0
 6-311+G(2d,p)
 ****
 1  2  3  4  5  16  17  18  19  20  21  22  23  24 0
 3-21G
 ****
 26  27  29  30  31  37  38  41  42  43  44  45  46  47  48 0
 3-21G
 ****


