%nproc=1
%NoSave
%Mem=1900MB
#P OB98/GEN NMR

erre ene a

0 1
  C     -359.719      91.895    -133.487
  O     -360.528      91.693    -132.339
  P     -359.938      90.986    -131.024
  C     -361.165      92.515    -129.362
  O     -359.907      92.140    -129.912
  C     -361.302      94.037    -129.356
  O     -361.503      94.483    -130.718
  C     -362.487      94.597    -128.572
  O     -362.254      94.753    -127.179
  C     -362.626      95.972    -129.214
  O     -361.631      96.863    -128.677
  C     -362.331      95.673    -130.685
  N     -365.997      97.898    -133.476
  C     -364.904      98.395    -132.857
  N     -363.983      97.739    -132.117
  C     -364.258      96.424    -132.080
  C     -365.331      95.772    -132.663
  C     -366.231      96.566    -133.393
  N     -367.333      96.051    -134.041
  N     -365.283      94.417    -132.389
  C     -364.196      94.262    -131.666
  N     -363.538      95.443    -131.460
  O     -358.658      90.255    -131.236
  O     -361.121      90.036    -130.523
  H     -361.842      96.989    -127.734
  H     -360.773      89.374    -129.893
  H     -364.746      99.465    -132.968
  H     -363.848      93.320    -131.270
  H     -361.767      96.476    -131.175
  H     -363.601      96.432    -129.026
  H     -363.401      94.018    -128.760
  H     -360.358      94.465    -128.997
  H     -361.216      92.145    -128.334
  H     -367.846      96.673    -134.642
  H     -367.415      95.048    -134.114
  H     -361.971      92.049    -129.936
  P     -363.118      93.831    -126.185
  C     -361.350      92.091    -125.347
  O     -362.420      92.388    -126.220
  O     -364.582      93.842    -126.445
  O     -362.719      94.400    -124.742
  H     -361.800      94.244    -124.476
  H     -361.130      91.024    -125.414
  H     -361.611      92.329    -124.313
  H     -360.461      92.654    -125.643
  H     -360.295      92.378    -134.249
  H     -359.371      90.950    -133.848
  H     -358.882      92.509    -133.230

 3  4  5  6  7  8  9  10  11  12  22  25  29  30  31  32 0
 6-311+G(2d,p)
 ****
 33  36  37 0
 6-311+G(2d,p)
 ****
 1  2  13  14  15  16  17  18  19  20  21  23  24  26 0
 3-21G
 ****
 27  28  34  35  38  39  40  41  42  43  44  45  46  47  48 0
 3-21G
 ****


