%nproc=1
%NoSave
%Mem=1900MB
#P OB98/GEN NMR

erre ene a

0 1
  C     -107.232     179.726    -333.823
  O     -108.575     179.612    -334.341
  P     -108.792     179.422    -335.925
  C     -108.304     176.891    -336.342
  O     -109.275     177.927    -336.249
  C     -108.966     175.510    -336.456
  O     -109.670     175.186    -335.215
  C     -109.995     175.388    -337.596
  O     -109.940     174.029    -338.066
  C     -111.314     175.639    -336.877
  O     -112.440     175.156    -337.594
  C     -111.045     174.902    -335.557
  N     -111.939     175.288    -334.463
  C     -113.297     175.005    -334.606
  O     -113.806     174.517    -335.605
  N     -114.093     175.349    -333.534
  C     -113.672     175.973    -332.384
  O     -114.443     176.269    -331.477
  C     -112.241     176.266    -332.308
  C     -111.452     175.922    -333.326
  O     -107.279     179.415    -336.465
  O     -109.577     180.503    -336.602
  H     -113.205     175.205    -336.988
  H     -107.210     179.993    -337.252
  H     -115.072     175.140    -333.611
  H     -111.865     176.750    -331.407
  H     -110.381     176.120    -333.285
  H     -111.113     173.827    -335.718
  H     -111.448     176.714    -336.732
  H     -109.812     176.083    -338.420
  H     -108.175     174.757    -336.570
  H     -107.668     176.905    -335.447
  H     -107.670     177.077    -337.218
  P     -109.196     173.740    -339.469
  C     -106.577     173.837    -339.330
  O     -107.768     173.106    -339.115
  O     -108.825     175.245    -339.912
  O     -110.025     173.016    -340.474
  H     -108.452     175.770    -339.179
  H     -106.698     174.888    -339.036
  H     -106.291     173.787    -340.387
  H     -105.776     173.401    -338.737
  H     -107.269     179.846    -332.760
  H     -106.751     180.576    -334.262
  H     -106.681     178.841    -334.063

 3  4  5  6  7  8  9  10  11  12  13  23  28  29  30  31  32 0
 6-311+G(2d,p)
 ****
 33  34 0
 6-311+G(2d,p)
 ****
 1  2  14  15  16  17  18  19  20  21  22  24  25  26 0
 3-21G
 ****
 27  35  36  37  38  39  40  41  42  43  44  45 0
 3-21G
 ****


