%nproc=1
%NoSave
%Mem=1900MB
#P OB98/GEN NMR

erre ene a

0 1
  C      104.772     207.174     111.021
  O      105.580     207.728     112.040
  P      105.015     207.677     113.542
  C      106.602     205.706     114.168
  O      106.160     207.035     114.455
  C      108.053     205.533     114.614
  O      108.902     206.462     113.916
  C      108.299     205.794     116.094
  O      107.840     204.707     116.886
  C      109.809     205.993     116.101
  O      110.472     204.717     116.050
  C      110.036     206.759     114.787
  N      113.045     210.889     114.420
  C      113.269     209.579     114.178
  N      112.425     208.537     114.321
  C      111.231     208.954     114.758
  C      110.854     210.248     115.062
  C      111.818     211.253     114.878
  N      111.582     212.585     115.125
  N      109.540     210.292     115.501
  C      109.136     209.039     115.443
  N      110.110     208.197     114.987
  O      103.901     206.524     113.472
  O      104.447     208.969     114.044
  H      111.423     204.893     115.893
  H      103.158     206.724     114.070
  H      114.271     209.336     113.824
  H      108.148     208.696     115.725
  H      110.945     206.446     114.267
  H      110.168     206.513     116.988
  H      107.799     206.714     116.414
  H      108.368     204.509     114.353
  H      106.540     205.535     113.086
  H      112.368     213.215     115.108
  H      110.716     212.835     115.598
  H      105.947     204.995     114.672
  P      107.792     204.918     118.482
  C      105.234     205.149     118.468
  O      106.340     204.380     118.905
  O      107.623     206.514     118.583
  O      108.944     204.338     119.222
  H      106.916     206.837     118.010
  H      104.321     204.654     118.773
  H      105.247     205.249     117.382
  H      105.269     206.146     118.934
  H      105.268     207.276     110.078
  H      103.835     207.690     110.989
  H      104.602     206.137     111.225

 3  4  5  6  7  8  9  10  11  12  22  25  29  30  31  32 0
 6-311+G(2d,p)
 ****
 33  36  37 0
 6-311+G(2d,p)
 ****
 1  2  13  14  15  16  17  18  19  20  21  23  24  26 0
 3-21G
 ****
 27  28  34  35  38  39  40  41  42  43  44  45  46  47  48 0
 3-21G
 ****


