%nproc=1
%NoSave
%Mem=1900MB
#P OB98/GEN NMR

erre ene a

0 1
  C       78.391     -32.270      15.410
  O       79.388     -33.030      14.720
  P       80.912     -32.858      15.200
  C       82.990     -31.718      14.090
  O       81.577     -31.800      14.187
  C       83.415     -31.235      12.698
  O       83.188     -32.295      11.719
  C       82.675     -29.981      12.208
  O       83.630     -29.197      11.477
  C       81.627     -30.544      11.269
  O       81.164     -29.571      10.340
  C       82.399     -31.715      10.652
  N       81.523     -32.710      10.033
  C       80.970     -32.376       8.799
  O       81.125     -31.276       8.268
  N       80.189     -33.342       8.219
  C       79.853     -34.544       8.774
  O       79.150     -35.373       8.205
  C       80.379     -34.789      10.127
  C       81.173     -33.874      10.681
  O       81.541     -34.265      14.777
  O       81.031     -32.522      16.652
  H       81.184     -34.612      13.939
  H       80.533     -29.995       9.725
  H       79.802     -33.134       7.304
  H       80.085     -35.710      10.622
  H       81.554     -34.012      11.685
  H       83.101     -31.350       9.891
  H       80.767     -30.909      11.847
  H       82.259     -29.385      13.030
  H       84.498     -31.046      12.718
  H       83.434     -32.704      14.271
  H       83.369     -31.051      14.875
  P       83.915     -27.691      11.972
  C       82.651     -25.405      11.724
  O       82.789     -26.753      11.323
  O       85.218     -27.346      11.092
  O       84.158     -27.539      13.440
  H       85.118     -27.592      10.158
  H       82.003     -24.891      11.007
  H       83.619     -24.901      11.739
  H       82.191     -25.360      12.714
  H       77.429     -32.480      14.991
  H       78.604     -31.226      15.309
  H       78.394     -32.536      16.446

 3  4  5  6  7  8  9  10  11  12  13  24  28  29  30  31  32 0
 6-311+G(2d,p)
 ****
 33  34 0
 6-311+G(2d,p)
 ****
 1  2  14  15  16  17  18  19  20  21  22  23  25  26  27 0
 3-21G
 ****
 35  36  37  38  39  40  41  42  43  44  45 0
 3-21G
 ****


