%nproc=1
%NoSave
%Mem=1900MB
#P OB98/GEN NMR

erre ene a

0 1
  C     -160.534      55.410      68.518
  O     -161.290      56.039      69.531
  H     -161.156      55.321      67.624
  H     -160.232      54.408      68.833
  H     -159.652      56.006      68.270
  P     -160.601      56.288      70.958
  C     -162.238      55.083      72.565
  O     -161.028      55.004      71.829
  C     -162.486      53.778      73.315
  O     -162.823      52.707      72.408
  C     -161.289      53.252      74.099
  O     -161.012      53.982      75.282
  C     -161.765      51.841      74.389
  O     -162.747      51.868      75.440
  C     -162.404      51.461      73.033
  N     -161.483      50.733      72.161
  C     -160.765      49.683      72.744
  O     -160.909      49.408      73.934
  N     -159.869      48.984      71.971
  C     -159.688      49.320      70.731
  N     -158.783      48.598      70.014
  C     -160.408      50.432      70.082
  C     -161.281      51.086      70.844
  O     -160.870      57.613      71.594
  O     -159.046      56.003      70.708
  H     -163.067      50.954      75.551
  H     -158.570      56.153      71.560
  H     -160.200      50.691      69.055
  H     -161.844      51.921      70.440
  H     -163.305      50.853      73.182
  H     -160.965      51.173      74.712
  H     -160.398      53.194      73.460
  H     -163.356      53.933      73.967
  H     -158.305      47.842      70.485
  H     -163.051      55.293      71.863
  H     -158.523      48.838      69.066
  H     -162.181      55.896      73.295
  P     -159.594      53.711      75.990
  C     -160.792      53.189      78.251
  O     -159.893      52.759      77.242
  O     -159.243      55.124      76.648
  O     -158.514      53.214      75.081
  H     -158.622      55.624      76.084
  H     -160.871      52.433      79.004
  H     -161.755      53.365      77.819
  H     -160.428      54.094      78.691

 6  7  8  9  10  11  12  13  14  15  16  26  30  31  32  33  35 0
 6-311+G(2d,p)
 ****
 37  38 0
 6-311+G(2d,p)
 ****
 1  2  3  4  5  17  18  19  20  21  22  23  24  25 0
 3-21G
 ****
 27  28  29  34  36  39  40  41  42  43  44  45  46 0
 3-21G
 ****


