%nproc=1
%NoSave
%Mem=1900MB
#P OB98/GEN NMR

erre ene a

0 1
  C     -158.134     689.110     707.105
  O     -159.250     688.933     707.971
  P     -158.989     689.031     709.547
  C     -160.495     688.966     711.682
  O     -160.424     689.053     710.268
  C     -161.933     688.690     712.109
  O     -162.777     689.827     711.815
  C     -162.571     687.507     711.383
  O     -162.145     686.271     711.928
  C     -164.057     687.784     711.598
  O     -164.500     687.312     712.872
  C     -164.107     689.325     711.548
  N     -164.623     689.825     710.280
  C     -166.013     689.865     710.154
  O     -166.763     689.480     711.039
  N     -166.497     690.319     708.957
  C     -165.750     690.693     707.875
  O     -166.246     691.044     706.814
  C     -164.294     690.607     708.054
  C     -163.806     690.175     709.221
  O     -158.450     690.534     709.750
  O     -158.035     688.023     710.091
  H     -164.672     686.360     712.776
  H     -157.781     690.546     710.468
  H     -167.496     690.391     708.860
  H     -163.664     690.894     707.219
  H     -162.726     690.097     709.364
  H     -164.745     689.705     712.348
  H     -164.679     687.293     710.842
  H     -162.344     687.563     710.315
  H     -161.943     688.527     713.192
  H     -160.152     689.916     712.117
  H     -159.826     688.167     712.032
  P     -162.595     684.934     711.162
  C     -161.511     682.573     710.896
  O     -161.429     683.871     711.456
  O     -162.381     685.391     709.631
  O     -163.982     684.514     711.491
  H     -161.639     686.009     709.534
  H     -161.951     682.598     709.893
  H     -162.102     681.933     711.554
  H     -160.496     682.171     710.822
  H     -158.454     689.019     706.088
  H     -157.397     688.363     707.315
  H     -157.712     690.081     707.261

 3  4  5  6  7  8  9  10  11  12  13  23  28  29  30  31  32 0
 6-311+G(2d,p)
 ****
 33  34 0
 6-311+G(2d,p)
 ****
 1  2  14  15  16  17  18  19  20  21  22  24  25  26 0
 3-21G
 ****
 27  35  36  37  38  39  40  41  42  43  44  45 0
 3-21G
 ****


