%nproc=1
%NoSave
%Mem=1900MB
#P OB98/GEN NMR

erre ene a

0 1
  C      -73.396     -50.268     -47.551
  O      -74.302     -49.759     -46.596
  H      -73.294     -49.540     -48.360
  H      -73.776     -51.203     -47.969
  H      -72.411     -50.433     -47.106
  P      -74.491     -50.547     -45.215
  C      -76.748     -51.476     -46.058
  O      -76.066     -50.779     -45.027
  C      -78.157     -50.907     -46.259
  O      -78.055     -49.684     -47.050
  C      -79.119     -51.851     -47.008
  O      -80.441     -51.568     -46.529
  C      -78.934     -51.372     -48.437
  O      -79.904     -51.888     -49.311
  C      -78.921     -49.857     -48.193
  N      -78.462     -49.046     -49.314
  C      -79.422     -48.358     -50.050
  O      -80.629     -48.381     -49.819
  N      -78.946     -47.616     -51.099
  C      -77.639     -47.487     -51.465
  O      -77.269     -46.783     -52.396
  C      -76.673     -48.244     -50.655
  C      -77.120     -48.972     -49.629
  O      -73.793     -49.964     -44.033
  O      -73.955     -52.021     -45.546
  H      -73.056     -52.131     -45.183
  H      -80.766     -51.929     -48.844
  H      -79.626     -47.108     -51.641
  H      -75.629     -48.173     -50.925
  H      -76.431     -49.533     -49.007
  H      -79.918     -49.519     -47.892
  H      -77.971     -51.713     -48.823
  H      -78.891     -52.908     -46.851
  H      -78.566     -50.620     -45.283
  H      -76.814     -52.531     -45.771
  H      -76.174     -51.395     -46.987
  P      -81.534     -52.705     -46.229
  C      -83.624     -51.730     -47.404
  O      -82.978     -52.005     -46.166
  O      -81.222     -53.544     -45.034
  O      -81.595     -53.594     -47.558
  H      -81.889     -54.497     -47.333
  H      -84.570     -51.267     -47.217
  H      -83.774     -52.644     -47.939
  H      -83.014     -51.072     -47.986

 6  7  8  9  10  11  12  13  14  15  16  27  31  32  33  34  35 0
 6-311+G(2d,p)
 ****
 36  37 0
 6-311+G(2d,p)
 ****
 1  2  3  4  5  17  18  19  20  21  22  23  24  25 0
 3-21G
 ****
 26  28  29  30  38  39  40  41  42  43  44  45 0
 3-21G
 ****


