%nproc=1
%NoSave
%Mem=1900MB
#P OB98/GEN NMR

erre ene a

0 1
  C     -135.340      96.986      -2.049
  O     -136.448      97.398      -2.830
  P     -136.946      96.431      -4.007
  C     -137.700      94.306      -2.719
  O     -136.709      94.914      -3.538
  C     -138.159      92.978      -3.321
  O     -138.754      93.214      -4.626
  C     -137.027      91.965      -3.513
  O     -137.536      90.638      -3.309
  C     -136.683      92.098      -4.981
  O     -136.050      90.920      -5.479
  C     -138.061      92.378      -5.577
  N     -138.858      91.796     -10.533
  C     -139.299      91.023      -9.477
  N     -139.972      89.896      -9.795
  N     -139.105      91.332      -8.221
  C     -138.412      92.487      -8.054
  C     -137.939      93.345      -9.022
  C     -138.150      92.985     -10.405
  O     -137.761      93.609     -11.386
  N     -137.316      94.428      -8.465
  C     -137.374      94.212      -7.166
  N     -137.998      93.029      -6.869
  O     -135.836      96.651      -5.142
  O     -138.308      96.736      -4.529
  H     -135.121      90.946      -5.173
  H     -136.201      97.199      -5.859
  H     -139.024      91.508     -11.484
  H     -136.960      94.861      -6.403
  H     -138.644      91.459      -5.691
  H     -135.998      92.941      -5.134
  H     -140.095      89.570     -10.743
  H     -136.159      92.126      -2.864
  H     -140.265      89.291      -9.041
  H     -138.948      92.561      -2.683
  H     -138.556      94.978      -2.638
  H     -137.297      94.145      -1.716
  P     -136.609      89.659      -2.437
  C     -137.349      89.858       0.051
  O     -136.510      90.328      -0.985
  O     -135.151      89.879      -3.056
  O     -137.033      88.227      -2.470
  H     -134.599      89.088      -2.905
  H     -136.728      89.434       0.845
  H     -138.054      89.096      -0.295
  H     -137.917      90.704       0.454
  H     -135.128      97.730      -1.310
  H     -134.486      96.858      -2.681
  H     -135.569      96.059      -1.566

 3  4  5  6  7  8  9  10  11  12  23  26  30  31 0
 6-311+G(2d,p)
 ****
 33  35  36  37  38 0
 6-311+G(2d,p)
 ****
 1  2  13  14  15  16  17  18  19  20  21  22  24  25 0
 3-21G
 ****
 27  28  29  32  34  39  40  41  42  43  44  45  46  47  48  49 0
 3-21G
 ****


