%nproc=1
%NoSave
%Mem=1900MB
#P OB98/GEN NMR

erre ene a

0 1
  C      246.168     -11.618      77.142
  O      245.907     -10.217      77.275
  P      244.773      -9.585      76.332
  C      244.676      -9.003      73.776
  O      245.390      -9.600      74.851
  C      245.528      -9.014      72.509
  O      246.498      -7.937      72.536
  C      246.344     -10.284      72.319
  O      245.528     -11.367      71.902
  C      247.367      -9.820      71.290
  O      246.797      -9.841      69.971
  C      247.622      -8.361      71.728
  N      248.883      -8.190      72.441
  C      249.785      -7.297      71.869
  O      249.564      -6.698      70.815
  N      250.966      -7.128      72.541
  C      251.336      -7.775      73.686
  O      252.406      -7.576      74.249
  C      250.362      -8.744      74.215
  C      249.199      -8.905      73.578
  O      244.826      -8.050      76.769
  O      243.446     -10.245      76.492
  H      245.725      -7.747      76.991
  H      246.322     -10.692      69.888
  H      251.627      -6.477      72.150
  H      250.633      -9.293      75.108
  H      248.467      -9.616      73.953
  H      247.635      -7.700      70.854
  H      248.262     -10.455      71.269
  H      246.852     -10.545      73.255
  H      244.864      -8.858      71.649
  H      244.421      -7.969      74.027
  H      243.739      -9.549      73.627
  P      245.737     -12.769      72.664
  C      247.810     -14.297      73.120
  O      247.312     -13.069      72.634
  O      245.125     -13.797      71.595
  O      245.093     -12.822      74.010
  H      245.406     -13.608      70.684
  H      248.811     -14.454      72.706
  H      247.175     -15.134      72.825
  H      247.881     -14.255      74.210
  H      246.941     -11.903      77.825
  H      246.481     -11.829      76.141
  H      245.277     -12.169      77.361

 3  4  5  6  7  8  9  10  11  12  13  24  28  29  30  31  32 0
 6-311+G(2d,p)
 ****
 33  34 0
 6-311+G(2d,p)
 ****
 1  2  14  15  16  17  18  19  20  21  22  23  25  26  27 0
 3-21G
 ****
 35  36  37  38  39  40  41  42  43  44  45 0
 3-21G
 ****


