%nproc=1
%NoSave
%Mem=1900MB
#P OB98/GEN NMR

erre ene a

0 1
  C      -93.426     203.640     249.388
  O      -93.155     204.962     248.962
  H      -92.808     203.403     250.257
  H      -94.477     203.572     249.676
  H      -93.233     202.925     248.584
  P      -91.761     205.221     248.211
  C      -92.735     206.893     246.483
  O      -92.129     205.628     246.702
  C      -92.400     207.409     245.082
  O      -90.982     207.738     245.039
  C      -92.688     206.412     243.954
  O      -93.202     207.135     242.831
  C      -91.312     205.874     243.604
  O      -91.230     205.392     242.265
  C      -90.438     207.094     243.871
  N      -85.622     208.605     243.245
  C      -86.792     209.279     243.201
  N      -88.033     208.807     243.433
  C      -87.991     207.515     243.809
  C      -86.873     206.700     243.903
  C      -85.641     207.295     243.584
  N      -84.450     206.605     243.558
  N      -87.247     205.418     244.260
  C      -88.558     205.453     244.354
  N      -89.056     206.701     244.085
  O      -91.169     203.736     248.067
  O      -90.811     206.132     248.912
  H      -91.504     206.110     241.658
  H      -90.661     203.509     248.868
  H      -86.725     210.331     242.933
  H      -89.198     204.610     244.574
  H      -90.451     207.813     243.042
  H      -91.058     205.049     244.283
  H      -93.390     205.617     244.232
  H      -92.948     208.349     244.922
  H      -92.355     207.601     247.224
  H      -83.635     207.085     243.215
  H      -84.465     205.603     243.701
  H      -93.819     206.801     246.602
  P      -94.783     207.386     242.775
  C      -94.290     209.912     243.184
  O      -95.108     208.784     243.489
  O      -95.362     206.304     243.806
  O      -95.380     207.220     241.415
  H      -96.242     205.995     243.512
  H      -94.633     210.761     243.737
  H      -94.347     210.121     242.136
  H      -93.276     209.699     243.450

 6  7  8  9  10  11  12  13  14  15  25  28  32  33  34  35 0
 6-311+G(2d,p)
 ****
 36  39  40 0
 6-311+G(2d,p)
 ****
 1  2  3  4  5  16  17  18  19  20  21  22  23  24 0
 3-21G
 ****
 26  27  29  30  31  37  38  41  42  43  44  45  46  47 0
 3-21G
 ****
 48 0
 3-21G
 ****


