%nproc=1
%NoSave
%Mem=1900MB
#P OB98/GEN NMR

erre ene a

0 1
  C     -141.116     123.668     -41.046
  O     -139.738     123.912     -41.256
  H     -141.717     124.376     -41.626
  H     -141.351     122.652     -41.380
  H     -141.358     123.756     -39.983
  P     -139.194     125.369     -40.860
  C     -137.874     124.323     -38.876
  O     -138.840     125.277     -39.296
  C     -136.539     125.028     -38.644
  O     -136.639     125.928     -37.515
  C     -135.391     124.078     -38.316
  O     -134.820     123.496     -39.477
  C     -134.419     125.032     -37.641
  O     -133.753     125.834     -38.637
  C     -135.370     125.905     -36.806
  N     -133.499     125.717     -32.041
  C     -133.072     126.357     -33.150
  N     -133.639     126.374     -34.378
  C     -134.764     125.644     -34.390
  C     -135.328     124.942     -33.332
  C     -134.639     124.992     -32.108
  N     -135.053     124.318     -30.980
  N     -136.482     124.295     -33.738
  C     -136.618     124.615     -35.009
  N     -135.590     125.402     -35.460
  O     -140.507     126.285     -40.879
  O     -138.093     125.909     -41.713
  H     -133.069     126.354     -38.172
  H     -140.262     127.231     -40.872
  H     -132.150     126.927     -33.047
  H     -137.435     124.296     -35.648
  H     -135.021     126.943     -36.712
  H     -133.643     124.513     -37.073
  H     -135.696     123.312     -37.594
  H     -136.308     125.633     -39.533
  H     -137.758     123.564     -39.656
  H     -134.418     124.294     -30.197
  H     -135.819     123.661     -31.060
  H     -138.212     123.842     -37.953
  P     -134.078     122.081     -39.304
  C     -136.198     120.820     -40.135
  O     -135.236     120.983     -39.098
  O     -133.415     122.197     -37.853
  O     -133.072     121.775     -40.364
  H     -132.581     121.697     -37.809
  H     -136.898     120.060     -39.856
  H     -135.703     120.534     -41.039
  H     -136.716     121.743     -40.289

 6  7  8  9  10  11  12  13  14  15  25  28  32  33  34  35 0
 6-311+G(2d,p)
 ****
 36  39  40 0
 6-311+G(2d,p)
 ****
 1  2  3  4  5  16  17  18  19  20  21  22  23  24 0
 3-21G
 ****
 26  27  29  30  31  37  38  41  42  43  44  45  46  47 0
 3-21G
 ****
 48 0
 3-21G
 ****


