%nproc=1
%NoSave
%Mem=1900MB
#P OB98/GEN NMR

erre ene a

0 1
  C      119.582    -147.768     142.144
  O      118.950    -146.823     141.307
  H      120.020    -148.552     141.520
  H      118.848    -148.227     142.812
  H      120.379    -147.302     142.729
  P      118.381    -145.473     141.955
  C      118.232    -143.076     141.000
  O      118.082    -144.466     140.745
  C      118.746    -142.348     139.749
  O      120.157    -142.687     139.562
  C      118.008    -142.728     138.446
  O      118.048    -141.573     137.591
  C      118.904    -143.837     137.923
  O      118.609    -144.189     136.598
  C      120.273    -143.213     138.214
  N      121.410    -144.121     138.122
  C      121.793    -144.539     136.850
  O      121.252    -144.196     135.800
  N      122.861    -145.403     136.808
  C      123.570    -145.861     137.884
  O      124.536    -146.610     137.780
  C      123.109    -145.388     139.195
  C      122.070    -144.553     139.251
  O      119.190    -144.896     143.069
  O      116.910    -145.880     142.447
  H      116.919    -146.031     143.412
  H      117.676    -144.493     136.544
  H      123.158    -145.713     135.897
  H      123.640    -145.742     140.074
  H      121.715    -144.178     140.209
  H      120.440    -142.358     137.554
  H      118.756    -144.745     138.517
  H      116.967    -143.023     138.612
  H      118.698    -141.263     139.931
  H      118.954    -142.957     141.817
  H      117.271    -142.661     141.306
  P      117.115    -140.287     137.798
  C      118.001    -137.905     138.284
  O      117.950    -138.989     137.362
  O      116.515    -140.181     139.166
  O      115.975    -140.401     136.678
  H      115.175    -139.937     136.978
  H      118.586    -137.111     137.869
  H      118.446    -138.236     139.199
  H      117.009    -137.554     138.477

 6  7  8  9  10  11  12  13  14  15  16  27  31  32  33  34  35 0
 6-311+G(2d,p)
 ****
 36  37 0
 6-311+G(2d,p)
 ****
 1  2  3  4  5  17  18  19  20  21  22  23  24  25 0
 3-21G
 ****
 26  28  29  30  38  39  40  41  42  43  44  45 0
 3-21G
 ****


