%nproc=1
%NoSave
%Mem=1900MB
#P OB98/GEN NMR

erre ene a

0 1
  C     -277.090     305.051     546.716
  O     -275.678     304.919     546.787
  P     -274.743     306.161     547.167
  C     -272.659     304.736     547.677
  O     -273.252     305.682     546.796
  C     -271.388     304.164     547.058
  O     -271.761     303.172     546.072
  C     -270.502     305.161     546.303
  O     -269.612     305.897     547.123
  C     -269.709     304.216     545.411
  O     -268.648     303.606     546.172
  C     -270.762     303.173     545.021
  N     -270.153     303.236     539.941
  C     -269.334     302.851     540.943
  N     -269.557     302.883     542.274
  C     -270.796     303.333     542.526
  C     -271.744     303.759     541.607
  C     -271.379     303.698     540.254
  N     -272.222     304.070     539.214
  N     -272.904     304.169     542.251
  C     -272.653     303.987     543.530
  N     -271.405     303.476     543.749
  O     -274.935     306.680     548.548
  O     -275.053     307.254     546.041
  H     -268.067     304.329     546.474
  H     -274.743     308.133     546.323
  H     -268.356     302.465     540.640
  H     -273.352     304.212     544.327
  H     -270.345     302.162     544.961
  H     -269.241     304.737     544.562
  H     -271.109     305.832     545.674
  H     -270.811     303.659     547.846
  H     -273.381     303.922     547.840
  H     -271.928     303.869     538.279
  H     -273.202     304.254     539.450
  H     -272.449     305.203     548.650
  P     -269.480     307.484     546.840
  C     -268.100     307.859     549.023
  O     -268.159     307.954     547.628
  O     -270.725     308.262     547.134
  O     -269.036     307.534     545.300
  H     -268.149     307.178     545.111
  H     -267.073     308.080     549.349
  H     -268.360     306.862     549.373
  H     -268.773     308.603     549.490
  H     -277.523     304.110     546.448
  H     -277.343     305.783     545.978
  H     -277.468     305.360     547.668

 3  4  5  6  7  8  9  10  11  12  22  25  29  30  31  32 0
 6-311+G(2d,p)
 ****
 33  36  37 0
 6-311+G(2d,p)
 ****
 1  2  13  14  15  16  17  18  19  20  21  23  24  26 0
 3-21G
 ****
 27  28  34  35  38  39  40  41  42  43  44  45  46  47  48 0
 3-21G
 ****


