%nproc=1
%NoSave
%Mem=1900MB
#P OB98/GEN NMR

erre ene a

0 1
  C       98.210    -405.220      -2.964
  O       98.824    -406.265      -3.720
  P      100.317    -406.072      -4.262
  C      101.609    -408.177      -3.494
  O      100.960    -407.509      -4.568
  C      102.562    -409.247      -4.037
  O      101.856    -410.221      -4.844
  C      103.626    -408.675      -4.966
  O      104.622    -407.866      -4.372
  C      104.090    -409.907      -5.724
  O      105.059    -410.646      -4.982
  C      102.774    -410.711      -5.848
  N      102.188    -410.633      -7.185
  C      102.957    -411.154      -8.221
  O      104.083    -411.621      -8.058
  N      102.399    -411.090      -9.471
  C      101.193    -410.538      -9.781
  O      100.749    -410.486     -10.921
  C      100.436    -409.979      -8.648
  C      100.960    -410.050      -7.423
  O      101.178    -405.146      -3.475
  O      100.081    -405.486      -5.741
  H      105.247    -411.466      -5.478
  H      100.744    -404.784      -5.893
  H      102.938    -411.471     -10.231
  H       99.474    -409.523      -8.860
  H      100.419    -409.645      -6.574
  H      102.949    -411.771      -5.621
  H      104.550    -409.644      -6.678
  H      103.122    -408.028      -5.697
  H      103.008    -409.779      -3.195
  H      100.866    -408.630      -2.835
  H      102.148    -407.439      -2.888
  P      104.392    -406.325      -4.000
  C      106.058    -406.683      -2.046
  O      105.622    -405.839      -3.088
  O      103.024    -405.913      -3.581
  O      104.731    -405.611      -5.403
  H      104.170    -404.815      -5.487
  H      106.884    -406.191      -1.522
  H      106.417    -407.633      -2.449
  H      105.251    -406.859      -1.333
  H       97.220    -405.516      -2.685
  H       98.162    -404.331      -3.558
  H       98.788    -405.030      -2.084

 3  4  5  6  7  8  9  10  11  12  13  23  28  29  30  31  32 0
 6-311+G(2d,p)
 ****
 33  34 0
 6-311+G(2d,p)
 ****
 1  2  14  15  16  17  18  19  20  21  22  24  25  26  27 0
 3-21G
 ****
 35  36  37  38  39  40  41  42  43  44  45 0
 3-21G
 ****


