%nproc=1
%NoSave
%Mem=1900MB
#P OB98/GEN NMR

erre ene a

0 1
  C     -342.751     149.925    -356.876
  O     -341.959     150.936    -357.458
  P     -342.647     152.220    -358.128
  C     -344.507     152.419    -359.900
  O     -343.350     151.699    -359.475
  C     -344.553     152.480    -361.425
  O     -344.953     151.205    -361.986
  C     -345.567     153.473    -361.975
  O     -345.338     154.837    -361.733
  C     -345.654     153.026    -363.428
  O     -344.575     153.556    -364.197
  C     -345.523     151.490    -363.289
  N     -346.811     150.814    -363.480
  C     -347.407     150.989    -364.718
  O     -346.917     151.655    -365.626
  N     -348.626     150.380    -364.886
  C     -349.304     149.675    -363.935
  O     -350.413     149.196    -364.139
  C     -348.630     149.547    -362.637
  C     -347.428     150.111    -362.466
  O     -341.750     153.396    -358.317
  O     -343.904     152.504    -357.177
  H     -344.655     153.197    -365.102
  H     -344.543     151.773    -357.116
  H     -349.079     150.501    -365.776
  H     -349.140     148.982    -361.860
  H     -346.911     150.024    -361.515
  H     -344.825     151.104    -364.035
  H     -346.584     153.371    -363.901
  H     -346.538     153.251    -361.516
  H     -343.542     152.691    -361.793
  H     -344.453     153.441    -359.502
  H     -345.401     151.943    -359.491
  P     -346.503     155.939    -361.700
  C     -348.386     156.726    -363.299
  O     -347.402     155.757    -363.015
  O     -346.104     157.329    -361.333
  O     -347.465     155.359    -360.559
  H     -347.906     156.092    -360.107
  H     -348.931     156.419    -364.198
  H     -347.927     157.698    -363.489
  H     -349.099     156.809    -362.471
  H     -342.117     149.157    -356.484
  H     -343.400     149.508    -357.618
  H     -343.337     150.343    -356.084

 3  4  5  6  7  8  9  10  11  12  13  23  28  29  30  31  32 0
 6-311+G(2d,p)
 ****
 33  34 0
 6-311+G(2d,p)
 ****
 1  2  14  15  16  17  18  19  20  21  22  24  25  26  27 0
 3-21G
 ****
 35  36  37  38  39  40  41  42  43  44  45 0
 3-21G
 ****


