%nproc=1
%NoSave
%Mem=1900MB
#P OB98/GEN NMR

erre ene a

0 1
  C      235.140    -219.801     348.844
  O      234.224    -220.849     348.592
  H      235.565    -219.942     349.841
  H      234.630    -218.833     348.810
  H      235.948    -219.824     348.109
  P      233.455    -220.807     347.184
  C      235.451    -221.760     345.857
  O      234.627    -220.623     346.098
  C      235.036    -222.460     344.561
  O      235.016    -221.479     343.493
  C      235.985    -223.586     344.145
  O      235.228    -224.660     343.591
  C      236.837    -222.950     343.060
  O      237.371    -223.914     342.156
  C      235.852    -221.968     342.428
  N      239.421    -220.788     338.975
  C      238.845    -221.960     339.317
  N      237.887    -222.184     340.239
  C      237.488    -221.028     340.803
  C      237.984    -219.758     340.561
  C      239.005    -219.656     339.597
  N      239.611    -218.467     339.262
  N      237.350    -218.831     341.370
  C      236.483    -219.529     342.079
  N      236.543    -220.864     341.783
  O      232.336    -219.824     347.087
  O      233.045    -222.341     346.990
  H      237.775    -223.439     341.401
  H      233.779    -222.941     347.222
  H      239.211    -222.836     338.783
  H      235.806    -219.123     342.823
  H      235.212    -222.439     341.672
  H      237.677    -222.414     343.516
  H      236.591    -223.953     344.977
  H      234.008    -222.826     344.674
  H      235.378    -222.463     346.694
  H      240.325    -218.481     338.548
  H      239.300    -217.614     339.703
  H      236.488    -221.415     345.786
  P      235.742    -226.162     343.828
  C      234.644    -226.712     346.101
  O      235.857    -226.416     345.412
  O      236.927    -226.584     343.023
  O      234.451    -227.034     343.440
  H      234.747    -227.850     342.987
  H      234.851    -226.859     347.140
  H      234.211    -227.602     345.694
  H      233.960    -225.897     345.986

 6  7  8  9  10  11  12  13  14  15  25  28  32  33  34  35 0
 6-311+G(2d,p)
 ****
 36  39  40 0
 6-311+G(2d,p)
 ****
 1  2  3  4  5  16  17  18  19  20  21  22  23  24 0
 3-21G
 ****
 26  27  29  30  31  37  38  41  42  43  44  45  46  47 0
 3-21G
 ****
 48 0
 3-21G
 ****


