%nproc=1
%NoSave
%Mem=1900MB
#P OB98/GEN NMR

erre ene a

0 1
  C      705.105    -893.490     208.985
  O      704.544    -894.780     208.889
  H      706.173    -893.550     208.760
  H      704.988    -893.110     210.009
  H      704.645    -892.800     208.276
  P      702.963    -894.910     208.716
  C      702.795    -895.910     206.334
  O      702.605    -894.760     207.153
  C      702.980    -895.530     204.864
  O      704.170    -894.740     204.714
  C      703.133    -896.760     203.963
  O      701.910    -897.320     203.500
  C      703.958    -896.180     202.799
  O      703.100    -895.640     201.782
  C      704.797    -895.100     203.462
  N      709.527    -895.450     201.581
  C      708.352    -895.130     200.904
  N      708.460    -894.940     199.585
  N      707.179    -895.070     201.498
  C      707.233    -895.390     202.819
  C      708.338    -895.710     203.576
  C      709.633    -895.730     202.929
  O      710.697    -895.980     203.474
  N      707.983    -896.010     204.885
  C      706.674    -895.950     204.869
  N      706.175    -895.480     203.682
  O      702.397    -893.540     209.337
  O      702.333    -896.100     209.398
  H      703.654    -895.140     201.155
  H      701.523    -893.700     209.726
  H      710.404    -895.470     201.054
  H      706.032    -896.180     205.726
  H      704.810    -894.180     202.834
  H      704.548    -896.980     202.324
  H      709.307    -895.090     199.047
  H      703.748    -897.530     204.459
  H      707.603    -894.920     199.021
  H      702.133    -894.910     204.536
  H      701.892    -896.520     206.456
  H      703.650    -896.500     206.697
  P      701.476    -898.810     203.905
  C      699.317    -898.190     205.270
  O      700.631    -898.730     205.243
  O      702.878    -899.460     204.375
  O      700.821    -899.600     202.825
  H      703.246    -900.000     203.674
  H      698.934    -898.233     206.268
  H      698.684    -898.758     204.621
  H      699.343    -897.172     204.942

 6  7  8  9  10  11  12  13  14  15  26  29  33  34 0
 6-311+G(2d,p)
 ****
 36  38  39  40  41 0
 6-311+G(2d,p)
 ****
 1  2  3  4  5  16  17  18  19  20  21  22  23  24  25 0
 3-21G
 ****
 27  28  30  31  32  35  37  42  43  44  45  46  47 0
 3-21G
 ****
 48  49 0
 3-21G
 ****


