%nproc=1
%NoSave
%Mem=1900MB
#P OB98/GEN NMR

erre ene a

0 1
  C     -889.850    -693.109      18.403
  O     -889.980    -693.805      19.612
  H     -888.940    -693.443      17.894
  H     -889.780    -692.034      18.585
  H     -890.710    -693.316      17.750
  P     -891.280    -693.476      20.509
  C     -892.020    -695.964      20.742
  O     -892.330    -694.661      20.240
  C     -892.830    -696.239      22.002
  O     -894.250    -696.068      21.728
  C     -892.690    -697.655      22.533
  O     -891.470    -697.859      23.245
  C     -893.930    -697.785      23.393
  O     -893.730    -697.209      24.694
  C     -894.960    -696.944      22.611
  N     -899.080    -699.953      22.933
  C     -898.440    -699.164      23.845
  N     -897.360    -698.394      23.672
  C     -896.950    -698.440      22.396
  C     -897.500    -699.176      21.345
  C     -898.610    -699.956      21.655
  N     -899.240    -700.761      20.737
  N     -896.760    -698.989      20.202
  C     -895.810    -698.151      20.530
  N     -895.870    -697.793      21.853
  O     -891.920    -692.216      19.742
  O     -891.010    -693.177      21.947
  H     -893.490    -696.276      24.541
  H     -891.680    -691.400      20.208
  H     -898.880    -699.204      24.847
  H     -895.030    -697.791      19.863
  H     -895.580    -696.319      23.268
  H     -894.220    -698.826      23.523
  H     -892.760    -698.383      21.691
  H     -892.540    -695.504      22.762
  H     -890.940    -696.013      20.971
  H     -892.240    -696.696      19.955
  H     -900.000    -701.344      21.040
  H     -898.830    -700.857      19.815
  P     -890.980    -699.370      23.499
  C     -889.830    -699.685      21.177
  O     -890.880    -700.060      22.050
  O     -892.270    -700.083      24.143
  O     -889.780    -699.499      24.350
  H     -891.980    -700.747      24.799
  H     -889.912    -700.236      20.263
  H     -888.889    -699.898      21.639
  H     -889.896    -698.637      20.969

 6  7  8  9  10  11  12  13  14  15  25  28  32  33  34  35 0
 6-311+G(2d,p)
 ****
 36  37  40 0
 6-311+G(2d,p)
 ****
 1  2  3  4  5  16  17  18  19  20  21  22  23  24 0
 3-21G
 ****
 26  27  29  30  31  38  39 41  42  43  44  45  46  47  48 0
 3-21G
 ****


