%nproc=1
%NoSave
%Mem=1900MB
#P OB98/GEN NMR

erre ene a

0 1
  C       91.621     -91.287     217.853
  O       92.098     -92.101     216.779
  P       90.977     -92.754     215.833
  C       90.590     -92.462     213.284
  O       90.826     -91.827     214.531
  C       90.255     -91.428     212.207
  O       89.068     -90.676     212.519
  C       91.355     -90.399     211.993
  O       92.386     -90.948     211.188
  C       90.598     -89.270     211.309
  O       90.487     -89.500     209.887
  C       89.213     -89.338     211.973
  N       85.909     -86.000     213.876
  C       85.856     -86.727     212.699
  N       84.755     -86.559     211.938
  N       86.797     -87.547     212.312
  C       87.840     -87.616     213.175
  C       87.992     -86.968     214.378
  C       86.944     -86.062     214.796
  O       86.933     -85.412     215.835
  N       89.157     -87.340     215.005
  C       89.760     -88.111     214.118
  N       88.976     -88.363     213.021
  O       89.620     -92.506     216.645
  O       91.199     -94.205     215.563
  H       90.024     -88.747     209.479
  H       89.279     -93.355     216.986
  H       85.159     -85.377     214.121
  H       90.748     -88.532     214.236
  H       88.408     -89.202     211.240
  H       91.105     -88.309     211.423
  H       83.992     -85.948     212.177
  H       91.746     -90.057     212.961
  H       84.694     -87.090     211.077
  H       90.074     -91.976     211.271
  H       89.772     -93.176     213.376
  H       91.481     -93.038     213.009
  P       93.892     -90.850     211.729
  C       94.941     -91.766     213.919
  O       94.088     -92.007     212.817
  O       93.879     -89.501     212.595
  O       94.931     -90.792     210.660
  H       94.680     -88.980     212.400
  H       94.587     -92.348     214.772
  H       94.959     -90.707     214.194
  H       95.956     -92.087     213.664
  H       92.452     -90.909     218.411
  H       90.998     -91.873     218.495
  H       91.056     -90.469     217.457

 3  4  5  6  7  8  9  10  11  12  23  26  30  31 0
 6-311+G(2d,p)
 ****
 33  35  36  37  38 0
 6-311+G(2d,p)
 ****
 1  2  13  14  15  16  17  18  19  20  21  22  24  25 0
 3-21G
 ****
 27  28  29  32  34  39  40  41  42  43  44  45  46  47  48  49 0
 3-21G
 ****


