%nproc=1
%NoSave
%Mem=1900MB
#P OB98/GEN NMR

erre ene a

0 1
  C     -895.840    -408.325     226.830
  O     -896.350    -408.926     225.657
  H     -895.150    -409.022     227.303
  H     -896.640    -408.102     227.531
  H     -895.290    -407.409     226.586
  P     -897.320    -408.067     224.703
  C     -896.510    -409.387     222.662
  O     -897.620    -408.985     223.419
  C     -896.730    -410.770     222.045
  O     -896.790    -411.757     223.117
  C     -898.040    -410.888     221.241
  O     -897.810    -411.718     220.103
  C     -898.990    -411.590     222.201
  O     -900.000    -412.306     221.517
  C     -898.020    -412.480     222.989
  N     -898.360    -416.148     226.450
  C     -897.670    -416.122     225.261
  N     -896.980    -417.232     224.908
  N     -897.670    -415.069     224.446
  C     -898.360    -414.024     224.919
  C     -899.090    -413.934     226.101
  C     -899.120    -415.104     226.958
  O     -899.730    -415.187     228.029
  N     -899.700    -412.702     226.203
  C     -899.350    -412.050     225.128
  N     -898.550    -412.817     224.302
  O     -896.860    -406.692     224.394
  O     -898.730    -408.065     225.489
  H     -899.550    -412.961     220.947
  H     -898.840    -407.215     225.967
  H     -898.350    -416.977     227.016
  H     -899.640    -411.050     224.865
  H     -897.820    -413.434     222.483
  H     -899.460    -410.842     222.859
  H     -896.940    -418.057     225.481
  H     -898.430    -409.918     220.915
  H     -896.460    -417.224     224.044
  H     -895.860    -411.041     221.419
  H     -895.630    -409.421     223.331
  H     -896.320    -408.650     221.865
  P     -897.480    -411.022     218.695
  C     -895.640    -412.303     217.424
  O     -897.040    -412.158     217.677
  O     -896.590    -409.820     218.749
  O     -898.960    -410.631     218.159
  H     -898.890    -409.843     217.597
  H     -895.484    -413.098     216.725
  H     -895.134    -412.528     218.339
  H     -895.255    -411.391     217.018

 6  7  8  9  10  11  12  13  14  15  26  29  33  34 0
 6-311+G(2d,p)
 ****
 36  38  39  40  41 0
 6-311+G(2d,p)
 ****
 1  2  3  4  5  16  17  18  19  20  21  22  23  24  25 0
 3-21G
 ****
 27  28  30  31  32  35  37  42  43  44  45  46  47 0
 3-21G
 ****
 48  49 0
 3-21G
 ****


