%nproc=1
%NoSave
%Mem=1900MB
#P OB98/GEN NMR

erre ene a

0 1
  C     -161.987     248.712    -891.640
  O     -162.079     248.640    -893.070
  P     -163.475     249.006    -893.800
  C     -163.685     246.730    -895.000
  O     -164.286     247.657    -894.060
  C     -164.545     245.517    -895.130
  O     -164.633     244.767    -893.900
  C     -165.995     245.793    -895.540
  O     -166.074     246.126    -896.910
  C     -166.680     244.504    -895.150
  O     -166.514     243.500    -896.170
  C     -165.896     244.096    -893.860
  N     -169.913     242.972    -890.930
  C     -169.571     242.579    -892.170
  N     -168.492     242.928    -892.890
  C     -167.756     243.851    -892.220
  C     -168.017     244.403    -890.980
  C     -169.144     243.895    -890.290
  N     -169.474     244.261    -889.010
  N     -167.062     245.317    -890.640
  C     -166.240     245.368    -891.690
  N     -166.601     244.419    -892.630
  O     -163.359     249.923    -894.960
  O     -164.323     249.726    -892.600
  H     -166.861     243.897    -897.020
  H     -164.530     250.647    -892.880
  H     -170.213     241.820    -892.610
  H     -165.385     246.013    -891.780
  H     -165.677     243.010    -893.850
  H     -167.760     244.611    -894.970
  H     -166.389     246.626    -894.920
  H     -164.081     244.837    -895.900
  H     -162.676     246.469    -894.610
  H     -170.200     243.722    -888.560
  H     -168.745     244.701    -888.410
  H     -163.554     247.253    -895.950
  P     -167.481     246.612    -897.530
  C     -167.568     244.510    -899.020
  O     -168.238     245.302    -898.060
  O     -167.427     247.761    -898.510
  O     -168.341     247.026    -896.210
  H     -168.969     247.761    -896.430
  H     -167.609     245.003    -900.000
  H     -168.004     243.526    -899.070
  H     -166.489     244.393    -898.740
  H     -160.999     248.439    -891.332
  H     -162.696     248.040    -891.203
  H     -162.197     249.711    -891.319

 3  4  5  6  7  8  9  10  11  12  22  25  29  30  31  32 0
 6-311+G(2d,p)
 ****
 33  36  37 0
 6-311+G(2d,p)
 ****
 1  2  13  14  15  16  17  18  19  20  21  23  24  26 0
 3-21G
 ****
 27  28  34  35  38  39  40  41  42  43  44  45  46  47  48 0
 3-21G
 ****


