%nproc=1
%NoSave
%Mem=1900MB
#P OB98/GEN NMR

erre ene a

0 1
  C       28.145    -439.997    -461.439
  O       27.487    -439.371    -462.545
  P       26.003    -438.815    -462.317
  C       26.648    -436.348    -462.827
  O       26.100    -437.273    -461.902
  C       27.224    -435.136    -462.089
  O       28.324    -435.509    -461.234
  C       27.764    -434.058    -463.026
  O       26.737    -433.210    -463.501
  C       28.688    -433.293    -462.084
  O       27.897    -432.386    -461.275
  C       29.277    -434.408    -461.209
  N       34.152    -435.030    -460.021
  C       33.107    -434.523    -459.261
  N       33.410    -434.138    -458.002
  N       31.877    -434.411    -459.704
  C       31.733    -434.854    -460.978
  C       32.687    -435.365    -461.821
  C       34.045    -435.475    -461.327
  O       35.012    -435.892    -461.945
  N       32.162    -435.693    -463.041
  C       30.869    -435.405    -462.931
  N       30.564    -434.874    -461.695
  O       25.558    -439.526    -460.953
  O       25.045    -439.129    -463.433
  H       27.487    -431.756    -461.893
  H       24.590    -439.636    -460.929
  H       35.079    -435.090    -459.626
  H       30.137    -435.560    -463.705
  H       29.408    -434.101    -460.169
  H       29.417    -432.682    -462.613
  H       34.313    -434.243    -457.580
  H       28.352    -434.499    -463.842
  H       32.643    -433.799    -457.422
  H       26.426    -434.701    -461.475
  H       25.877    -436.022    -463.531
  H       27.411    -436.856    -463.432
  P       26.332    -433.308    -465.055
  C       24.075    -434.514    -464.598
  O       25.363    -434.580    -465.175
  O       27.695    -433.792    -465.739
  O       25.838    -432.047    -465.659
  H       27.760    -433.439    -466.653
  H       23.501    -435.388    -464.919
  H       23.551    -433.609    -464.937
  H       24.149    -434.517    -463.506
  H       29.121    -440.316    -461.739
  H       27.576    -440.845    -461.119
  H       28.230    -439.299    -460.633

 3  4  5  6  7  8  9  10  11  12  23  26  30  31 0
 6-311+G(2d,p)
 ****
 33  35  36  37  38 0
 6-311+G(2d,p)
 ****
 1  2  13  14  15  16  17  18  19  20  21  22  24  25 0
 3-21G
 ****
 27  28  29  32  34  39  40  41  42  43  44  45  46  47  48  49 0
 3-21G
 ****


