%nproc=1
%NoSave
%Mem=1900MB
#P OB98/GEN NMR

erre ene a

0 1
  C      -18.856    -892.920    -307.029
  O      -20.198    -892.670    -307.396
  H      -18.530    -892.130    -306.342
  H      -18.210    -892.910    -307.908
  H      -18.767    -893.890    -306.515
  P      -20.897    -893.640    -308.457
  C      -22.693    -894.160    -306.670
  O      -21.771    -894.700    -307.603
  C      -23.998    -894.970    -306.683
  O      -24.685    -894.680    -307.941
  C      -23.743    -896.480    -306.620
  O      -24.475    -897.130    -305.590
  C      -24.011    -896.940    -308.066
  O      -24.410    -898.280    -308.188
  C      -25.037    -895.910    -308.574
  N      -25.044    -895.760    -310.029
  C      -25.201    -896.900    -310.785
  O      -25.358    -898.040    -310.332
  N      -25.197    -896.720    -312.151
  C      -25.038    -895.530    -312.798
  O      -25.045    -895.430    -314.018
  C      -24.865    -894.350    -311.931
  C      -24.864    -894.510    -310.616
  O      -19.996    -894.250    -309.475
  O      -22.027    -892.720    -309.140
  H      -25.230    -898.410    -307.658
  H      -21.721    -892.430    -310.022
  H      -25.319    -897.540    -312.705
  H      -24.704    -893.410    -312.407
  H      -24.712    -893.670    -309.943
  H      -26.036    -896.190    -308.252
  H      -23.079    -896.830    -308.638
  H      -22.699    -896.690    -306.382
  H      -24.636    -894.640    -305.857
  H      -22.901    -893.110    -306.955
  H      -22.251    -894.190    -305.666
  P      -23.953    -898.390    -304.758
  C      -23.864    -897.060    -302.502
  O      -23.183    -897.840    -303.469
  O      -23.266    -899.460    -305.548
  O      -25.314    -899.030    -304.138
  H      -25.160    -900.000    -304.106
  H      -23.185    -896.788    -301.721
  H      -24.673    -897.628    -302.091
  H      -24.248    -896.175    -302.964

 6  7  8  9  10  11  12  13  14  15  16  26  31  32  33  34  35 0
 6-311+G(2d,p)
 ****
 36  37 0
 6-311+G(2d,p)
 ****
 1  2  3  4  5  17  18  19  20  21  22  23  24  25 0
 3-21G
 ****
 27  28  29  30  38  39  40  41  42  43  44  45 0
 3-21G
 ****


