%nproc=1
%NoSave
%Mem=1900MB
#P OB98/GEN NMR

erre ene a

0 1
  C      -21.343      15.601      -8.459
  O      -22.077      16.207      -7.399
  P      -23.148      15.300      -6.622
  C      -22.350      15.985      -4.218
  O      -23.391      15.949      -5.179
  C      -22.796      16.722      -2.943
  O      -22.920      18.136      -3.253
  C      -24.158      16.309      -2.393
  O      -24.251      16.739      -1.028
  C      -25.101      17.134      -3.246
  O      -26.394      17.235      -2.654
  C      -24.329      18.465      -3.403
  N      -24.559      19.133      -4.701
  C      -25.792      19.745      -4.921
  O      -26.711      19.764      -4.100
  N      -25.969      20.319      -6.154
  C      -25.039      20.375      -7.152
  O      -25.279      20.825      -8.268
  C      -23.712      19.840      -6.817
  C      -23.539      19.244      -5.635
  O      -22.338      13.950      -6.318
  O      -24.396      15.042      -7.399
  H      -26.862      17.962      -3.133
  H      -22.639      13.237      -6.914
  H      -26.882      20.706      -6.353
  H      -22.929      19.929      -7.559
  H      -22.567      18.826      -5.379
  H      -24.607      19.176      -2.616
  H      -25.225      16.657      -4.223
  H      -24.372      15.239      -2.460
  H      -22.021      16.619      -2.178
  H      -21.464      16.461      -4.648
  H      -22.055      14.959      -3.960
  P      -24.164      15.626       0.120
  C      -22.640      17.108       1.567
  O      -23.872      16.414       1.486
  O      -23.269      14.464      -0.164
  O      -25.694      15.170       0.300
  H      -25.726      14.307       0.746
  H      -22.763      17.967       2.233
  H      -22.314      17.466       0.584
  H      -21.875      16.443       1.980
  H      -20.671      16.318      -8.883
  H      -22.021      15.259      -9.212
  H      -20.785      14.771      -8.078

 3  4  5  6  7  8  9  10  11  12  13  23  28  29  30  31  32 0
 6-311+G(2d,p)
 ****
 33  34 0
 6-311+G(2d,p)
 ****
 1  2  14  15  16  17  18  19  20  21  22  24  25  26  27 0
 3-21G
 ****
 35  36  37  38  39  40  41  42  43  44  45 0
 3-21G
 ****


