%nproc=1
%NoSave
%Mem=1900MB
#P OB98/GEN NMR

erre ene a

0 1
  C      -62.031       0.452      68.727
  O      -61.893      -0.793      69.379
  H      -61.762       1.244      69.430
  H      -63.070       0.596      68.418
  H      -61.375       0.519      67.857
  P      -61.910      -2.131      68.499
  C      -63.711      -3.747      67.600
  O      -63.430      -2.643      68.448
  C      -65.174      -4.187      67.747
  O      -65.385      -4.670      69.100
  C      -66.138      -3.013      67.536
  O      -67.406      -3.441      67.044
  C      -66.314      -2.467      68.944
  O      -67.522      -1.722      69.110
  C      -66.258      -3.747      69.777
  N      -67.484      -2.456      74.556
  C      -68.242      -2.365      73.404
  N      -69.493      -1.863      73.549
  N      -67.807      -2.707      72.221
  C      -66.516      -3.121      72.217
  C      -65.656      -3.236      73.287
  C      -66.161      -2.884      74.598
  O      -65.523      -2.927      75.647
  N      -64.419      -3.681      72.892
  C      -64.526      -3.833      71.588
  N      -65.789      -3.531      71.133
  O      -61.212      -3.217      69.451
  O      -61.221      -2.040      67.171
  H      -67.535      -1.032      68.420
  H      -60.856      -3.953      68.921
  H      -67.876      -2.206      75.446
  H      -63.734      -4.175      70.931
  H      -67.250      -4.209      69.841
  H      -65.485      -1.784      69.153
  H      -69.788      -1.409      74.398
  H      -65.737      -2.254      66.869
  H      -69.936      -1.503      72.699
  H      -65.383      -5.027      67.075
  H      -63.036      -4.554      67.891
  H      -63.486      -3.495      66.562
  P      -67.527      -3.863      65.502
  C      -67.365      -2.612      63.173
  O      -67.151      -2.622      64.568
  O      -69.098      -4.048      65.280
  O      -66.759      -5.098      65.138
  H      -69.305      -4.978      65.072
  H      -67.035      -1.678      62.768
  H      -68.408      -2.740      62.971
  H      -66.814      -3.411      62.722

 6  7  8  9  10  11  12  13  14  15  26  29  33  34 0
 6-311+G(2d,p)
 ****
 36  38  39  40  41 0
 6-311+G(2d,p)
 ****
 1  2  3  4  5  16  17  18  19  20  21  22  23  24  25 0
 3-21G
 ****
 27  28  30  31  32  35  37  42  43  44  45  46  47 0
 3-21G
 ****
 48  49 0
 3-21G
 ****


