%nproc=1
%NoSave
%Mem=1900MB
#P OB98/GEN NMR

erre ene a

0 1
  C     -208.269    -158.289     -93.934
  O     -208.158    -157.183     -93.053
  P     -209.402    -156.173     -92.962
  C     -207.954    -154.494     -94.381
  O     -209.204    -155.128     -94.160
  C     -207.651    -154.429     -95.879
  O     -207.654    -155.760     -96.439
  C     -208.666    -153.643     -96.698
  O     -208.487    -152.242     -96.556
  C     -208.396    -154.181     -98.099
  O     -207.246    -153.531     -98.668
  C     -208.083    -155.663     -97.812
  N     -209.213    -156.551     -98.079
  C     -209.348    -156.997     -99.391
  O     -208.577    -156.677    -100.294
  N     -210.422    -157.813     -99.634
  C     -211.384    -158.165     -98.734
  O     -212.348    -158.865     -99.017
  C     -211.205    -157.638     -97.372
  C     -210.144    -156.870     -97.112
  O     -209.019    -155.355     -91.640
  O     -210.720    -156.869     -92.916
  H     -208.056    -155.335     -91.494
  H     -206.487    -153.763     -98.098
  H     -210.529    -158.168    -100.573
  H     -211.953    -157.889     -96.632
  H     -210.003    -156.463     -96.118
  H     -207.232    -155.995     -98.422
  H     -209.237    -154.018     -98.782
  H     -209.683    -153.917     -96.391
  H     -206.646    -154.007     -96.006
  H     -207.171    -155.064     -93.871
  H     -207.987    -153.486     -93.953
  P     -209.755    -151.408     -96.018
  C     -209.285    -149.846     -98.060
  O     -210.234    -150.485     -97.236
  O     -209.047    -150.390     -95.006
  O     -210.816    -152.261     -95.400
  H     -208.218    -150.023     -95.354
  H     -209.764    -149.578     -99.004
  H     -208.432    -150.498     -98.269
  H     -208.934    -148.932     -97.571
  H     -207.372    -158.871     -93.891
  H     -208.417    -157.936     -94.933
  H     -209.102    -158.895     -93.643

 3  4  5  6  7  8  9  10  11  12  13  24  28  29  30  31  32 0
 6-311+G(2d,p)
 ****
 33  34 0
 6-311+G(2d,p)
 ****
 1  2  14  15  16  17  18  19  20  21  22  23  25  26  27 0
 3-21G
 ****
 35  36  37  38  39  40  41  42  43  44  45 0
 3-21G
 ****


