%nproc=1
%NoSave
%Mem=1900MB
#P OB98/GEN NMR

erre ene a

0 1
  C      -27.474       2.954    -100.299
  O      -27.906       4.166     -99.717
  H      -26.397       2.850    -100.136
  H      -27.667       2.963    -101.373
  H      -27.984       2.107     -99.834
  P      -29.466       4.515     -99.848
  C      -29.980       5.645     -97.569
  O      -29.707       5.829     -98.951
  C      -28.676       5.585     -96.773
  O      -28.095       6.917     -96.719
  C      -28.855       5.099     -95.327
  O      -27.732       4.285     -94.972
  C      -28.804       6.387     -94.524
  O      -28.427       6.162     -93.170
  C      -27.791       7.187     -95.337
  N      -25.091      11.127     -93.754
  C      -24.715       9.818     -93.990
  N      -23.420       9.506     -93.765
  N      -25.539       8.893     -94.406
  C      -26.798       9.351     -94.613
  C      -27.298      10.614     -94.408
  C      -26.380      11.625     -93.925
  O      -26.659      12.792     -93.676
  N      -28.638      10.668     -94.700
  C      -28.945       9.441     -95.083
  N      -27.860       8.608     -95.049
  O      -30.180       3.358     -99.001
  O      -29.993       4.600    -101.241
  H      -28.409       7.029     -92.715
  H      -31.067       3.163     -99.359
  H      -24.419      11.796     -93.423
  H      -29.927       9.106     -95.388
  H      -26.757       6.873     -95.144
  H      -29.785       6.876     -94.532
  H      -22.722      10.173     -93.475
  H      -29.779       4.541     -95.164
  H      -23.120       8.554     -93.945
  H      -27.964       4.953     -97.315
  H      -30.531       4.708     -97.437
  H      -30.594       6.476     -97.211
  P      -27.885       2.697     -95.135
  C      -25.371       2.207     -95.553
  O      -26.501       2.001     -94.719
  O      -27.935       2.504     -96.724
  O      -29.107       2.139     -94.484
  H      -28.838       2.265     -96.999
  H      -24.529       1.684     -95.149
  H      -25.151       3.253     -95.603
  H      -25.581       1.839     -96.536

 6  7  8  9  10  11  12  13  14  15  26  29  33  34 0
 6-311+G(2d,p)
 ****
 36  38  39  40  41 0
 6-311+G(2d,p)
 ****
 1  2  3  4  5  16  17  18  19  20  21  22  23  24  25 0
 3-21G
 ****
 27  28  30  31  32  35  37  42  43  44  45  46  47 0
 3-21G
 ****
 48  49 0
 3-21G
 ****


