%nproc=1
%NoSave
%Mem=1900MB
#P OB98/GEN NMR

erre ene a

0 1
  C      218.258     700.896    1845.286
  O      218.525     702.251    1845.693
  P      219.252     702.676    1847.044
  C      220.474     704.744    1845.942
  O      220.562     703.522    1846.652
  C      221.104     705.891    1846.727
  O      220.185     706.248    1847.829
  C      222.452     705.514    1847.377
  O      223.433     706.532    1847.283
  C      222.054     705.068    1848.770
  O      223.114     705.085    1849.718
  C      220.863     706.009    1849.077
  N      217.295     706.954    1852.634
  C      218.134     707.831    1851.967
  N      218.041     709.145    1852.297
  N      219.012     707.467    1851.080
  C      219.082     706.141    1850.896
  C      218.313     705.142    1851.487
  C      217.316     705.571    1852.437
  O      216.541     704.840    1853.038
  N      218.680     703.887    1851.034
  C      219.632     704.128    1850.192
  N      219.943     705.451    1850.051
  O      219.407     701.618    1848.085
  O      218.257     703.811    1847.643
  H      222.717     704.815    1850.582
  H      218.343     703.756    1848.617
  H      216.616     707.302    1853.287
  H      220.181     703.339    1849.627
  H      221.198     706.961    1849.477
  H      221.694     704.033    1848.718
  H      217.450     709.483    1853.061
  H      222.916     704.664    1846.855
  H      218.808     709.753    1851.980
  H      221.197     706.771    1846.066
  H      219.419     704.916    1845.771
  H      220.939     704.634    1844.953
  P      224.386     706.902    1846.030
  C      223.040     709.042    1845.485
  O      223.529     707.780    1845.000
  O      224.557     705.510    1845.234
  O      225.713     707.493    1846.414
  H      225.518     705.294    1845.221
  H      222.264     709.403    1844.787
  H      223.860     709.748    1845.517
  H      222.595     708.908    1846.466
  H      217.760     700.900    1844.339
  H      217.635     700.421    1846.015
  H      219.181     700.360    1845.202

 3  4  5  6  7  8  9  10  11  12  23  26  30  31 0
 6-311+G(2d,p)
 ****
 33  35  36  37  38 0
 6-311+G(2d,p)
 ****
 1  2  13  14  15  16  17  18  19  20  21  22  24  25 0
 3-21G
 ****
 27  28  29  32  34  39  40  41  42  43  44  45  46  47  48  49 0
 3-21G
 ****


