%nproc=1
%NoSave
%Mem=1900MB
#P OB98/GEN NMR

erre ene a

0 1
  C      160.323      24.534       5.999
  O      160.958      25.113       4.877
  H      160.434      23.448       5.944
  H      159.257      24.779       5.997
  H      160.785      24.891       6.924
  P      160.945      26.715       4.789
  C      158.587      27.033       3.741
  O      159.996      27.090       3.551
  C      157.890      26.882       2.391
  O      156.459      26.834       2.591
  C      158.131      28.042       1.431
  O      159.390      27.947       0.790
  C      156.952      27.884       0.478
  O      157.223      26.911      -0.539
  C      155.840      27.377       1.405
  N      151.540      28.393       3.944
  C      152.266      27.261       3.814
  N      153.417      27.078       3.131
  C      153.809      28.226       2.551
  C      153.169      29.453       2.589
  C      151.978      29.517       3.331
  N      151.220      30.659       3.433
  N      153.855      30.381       1.831
  C      154.895      29.728       1.353
  N      154.910      28.427       1.767
  O      162.417      27.055       4.255
  O      160.636      27.421       6.067
  H      158.032      27.207      -0.999
  H      163.001      27.252       5.011
  H      151.869      26.387       4.323
  H      155.651      30.150       0.702
  H      155.256      26.570       0.947
  H      156.721      28.824      -0.025
  H      158.034      28.998       1.959
  H      158.203      25.932       1.941
  H      158.249      27.958       4.219
  H      158.351      26.186       4.394
  H      150.363      30.626       3.963
  H      151.481      31.473       2.893
  P      160.421      29.162       0.949
  C      158.933      30.602      -0.622
  O      160.234      30.128      -0.318
  O      161.842      28.472       0.695
  O      160.366      29.857       2.268
  H      162.291      28.294       1.542
  H      158.975      31.229      -1.488
  H      158.555      31.163       0.207
  H      158.287      29.771      -0.815

 6  7  8  9  10  11  12  13  14  15  25  28  32  33  34  35 0
 6-311+G(2d,p)
 ****
 36  37  40 0
 6-311+G(2d,p)
 ****
 1  2  3  4  5  16  17  18  19  20  21  22  23  24 0
 3-21G
 ****
 26  27  29  30  31  38  39 41  42  43  44  45  46  47  48 0
 3-21G
 ****


