%nproc=1
%NoSave
%Mem=1900MB
#P OB98/GEN NMR

erre ene a

0 1
  C     1291.620     867.886     281.945
  O     1292.071     867.075     280.877
  H     1292.160     867.609     282.860
  H     1290.547     867.722     282.106
  H     1291.806     868.941     281.732
  P     1291.559     867.463     279.404
  C     1293.373     869.234     278.845
  O     1292.000     868.981     279.154
  C     1293.489     870.091     277.580
  O     1292.813     871.362     277.782
  C     1294.913     870.429     277.176
  O     1295.519     869.370     276.440
  C     1294.680     871.656     276.301
  O     1294.195     871.228     275.007
  C     1293.577     872.381     277.077
  N     1295.589     876.997     277.638
  C     1295.228     876.325     276.491
  N     1295.451     876.967     275.312
  N     1294.702     875.125     276.476
  C     1294.556     874.604     277.725
  C     1294.877     875.166     278.933
  C     1295.447     876.501     278.931
  O     1295.758     877.156     279.921
  N     1294.571     874.334     279.985
  C     1294.092     873.246     279.397
  N     1294.077     873.358     278.032
  O     1289.968     867.574     279.589
  O     1291.916     866.495     278.329
  H     1293.363     870.752     275.149
  H     1289.532     867.246     278.773
  H     1295.999     877.922     277.591
  H     1293.749     872.375     279.929
  H     1292.885     872.910     276.406
  H     1295.591     872.223     276.127
  H     1295.883     877.870     275.260
  H     1295.529     870.713     278.048
  H     1295.164     876.502     274.463
  H     1292.962     869.568     276.780
  H     1293.886     868.284     278.682
  H     1293.839     869.752     279.697
  P     1297.041     868.981     276.803
  C     1296.246     866.723     277.814
  O     1296.940     867.954     278.028
  O     1297.597     870.318     277.485
  O     1297.864     868.538     275.637
  H     1298.567     870.338     277.410
  H     1296.260     866.144     278.714
  H     1296.725     866.175     277.030
  H     1295.233     866.928     277.538

 6  7  8  9  10  11  12  13  14  15  26  29  33  34 0
 6-311+G(2d,p)
 ****
 36  38  39  40  41 0
 6-311+G(2d,p)
 ****
 1  2  3  4  5  16  17  18  19  20  21  22  23  24  25 0
 3-21G
 ****
 27  28  30  31  32  35  37  42  43  44  45  46  47 0
 3-21G
 ****
 48  49 0
 3-21G
 ****


