%nproc=1
%NoSave
%Mem=1900MB
#P OB98/GEN NMR

erre ene a

0 1
  C      -91.368      49.094     141.202
  O      -91.744      49.907     140.107
  H      -91.492      48.045     140.916
  H      -91.997      49.296     142.072
  H      -90.318      49.265     141.454
  P      -91.810      51.497     140.311
  C      -94.371      51.274     140.120
  O      -93.286      51.825     140.856
  C      -95.546      52.254     140.073
  O      -95.939      52.570     141.437
  C      -95.223      53.571     139.353
  O      -96.381      53.982     138.621
  C      -94.952      54.518     140.505
  O      -95.151      55.867     140.126
  C      -95.905      54.003     141.589
  N      -95.457      54.402     142.924
  C      -95.297      55.776     143.142
  O      -95.547      56.582     142.243
  N      -94.802      56.204     144.348
  C      -94.438      55.335     145.243
  N      -93.915      55.826     146.401
  C      -94.561      53.874     145.042
  C      -95.077      53.481     143.877
  O      -91.373      52.330     139.151
  O      -90.886      51.750     141.596
  H      -94.551      56.088     139.380
  H      -89.966      51.919     141.319
  H      -94.239      53.191     145.815
  H      -95.193      52.428     143.636
  H      -96.922      54.385     141.430
  H      -93.910      54.411     140.834
  H      -94.363      53.489     138.678
  H      -96.400      51.750     139.602
  H      -93.828      56.833     146.481
  H      -94.683      50.347     140.623
  H      -93.562      55.246     147.150
  H      -94.044      51.031     139.104
  P      -96.406      53.902     137.018
  C      -96.719      56.435     136.790
  O      -95.927      55.313     136.410
  O      -97.688      53.381     136.437
  O      -95.190      52.914     136.666
  H      -95.396      52.434     135.839
  H      -96.323      57.320     136.338
  H      -96.702      56.540     137.855
  H      -97.727      56.288     136.462

 6  7  8  9  10  11  12  13  14  15  16  26  30  31  32  33  35 0
 6-311+G(2d,p)
 ****
 37  38 0
 6-311+G(2d,p)
 ****
 1  2  3  4  5  17  18  19  20  21  22  23  24  25 0
 3-21G
 ****
 27  28  29  34  36  39  40  41  42  43  44  45  46 0
 3-21G
 ****


