%nproc=1
%NoSave
%Mem=1900MB
#P OB98/GEN NMR

erre ene a

0 1
  C      428.656    -173.272     -53.622
  O      428.447    -174.650     -53.337
  P      429.622    -175.747     -53.447
  C      430.034    -176.354     -50.967
  O      429.484    -176.771     -52.218
  C      429.678    -177.321     -49.832
  O      428.373    -177.009     -49.278
  C      429.592    -178.796     -50.268
  O      430.881    -179.357     -50.391
  C      428.733    -179.379     -49.148
  O      429.531    -179.650     -47.988
  C      427.751    -178.234     -48.871
  N      423.382    -180.902     -49.018
  C      424.442    -180.948     -48.192
  N      425.571    -180.210     -48.206
  C      425.526    -179.317     -49.218
  C      424.514    -179.148     -50.138
  C      423.395    -179.983     -50.014
  N      422.312    -179.940     -50.872
  N      424.831    -178.151     -51.046
  C      426.019    -177.712     -50.656
  N      426.472    -178.383     -49.547
  O      430.997    -175.153     -53.591
  O      429.244    -176.635     -54.725
  H      428.930    -180.006     -47.301
  H      430.062    -176.996     -55.121
  H      424.392    -181.697     -47.387
  H      426.566    -176.910     -51.128
  H      427.526    -178.130     -47.797
  H      428.243    -180.320     -49.440
  H      429.057    -178.881     -51.223
  H      430.422    -177.196     -49.034
  H      429.642    -175.362     -50.731
  H      421.571    -180.598     -50.737
  H      422.334    -179.291     -51.661
  H      431.127    -176.300     -51.074
  P      431.092    -180.756     -51.140
  C      432.948    -179.834     -52.670
  O      432.604    -180.777     -51.661
  O      430.056    -181.098     -52.162
  O      431.110    -181.835     -49.948
  H      430.762    -182.682     -50.293
  H      432.597    -180.198     -53.633
  H      434.043    -179.724     -52.695
  H      432.497    -178.855     -52.441
  H      427.740    -172.736     -53.482
  H      428.982    -173.163     -54.635
  H      429.402    -172.881     -52.963

 3  4  5  6  7  8  9  10  11  12  22  25  29  30  31  32 0
 6-311+G(2d,p)
 ****
 33  36  37 0
 6-311+G(2d,p)
 ****
 1  2  13  14  15  16  17  18  19  20  21  23  24  26 0
 3-21G
 ****
 27  28  34  35  38  39  40  41  42  43  44  45  46  47  48 0
 3-21G
 ****


