%nproc=1
%NoSave
%Mem=1900MB
#P OB98/GEN NMR

erre ene a

0 1
  C      -88.206     -18.010      76.228
  O      -87.546     -19.229      76.491
  H      -87.454     -17.237      76.056
  H      -88.813     -17.724      77.092
  H      -88.840     -18.086      75.342
  P      -88.392     -20.588      76.462
  C      -90.525     -21.402      77.667
  O      -89.390     -20.549      77.717
  C      -91.450     -21.148      78.863
  O      -90.716     -21.402      80.088
  C      -91.911     -19.686      78.915
  O      -93.180     -19.546      79.549
  C      -90.850     -19.031      79.784
  O      -91.298     -17.825      80.402
  C      -90.533     -20.152      80.772
  N      -87.501     -18.279      84.417
  C      -88.806     -17.946      84.110
  N      -89.378     -16.989      84.880
  N      -89.479     -18.483      83.127
  C      -88.759     -19.370      82.400
  C      -87.454     -19.765      82.590
  C      -86.730     -19.188      83.704
  O      -85.566     -19.430      84.004
  N      -87.063     -20.677      81.643
  C      -88.125     -20.831      80.878
  N      -89.188     -20.078      81.312
  O      -87.329     -21.703      76.901
  O      -89.031     -20.923      75.149
  H      -91.572     -17.217      79.691
  H      -87.614     -22.582      76.592
  H      -87.038     -17.856      85.202
  H      -88.182     -21.483      80.016
  H      -91.229     -20.128      81.619
  H      -90.000     -18.771      79.148
  H      -88.835     -16.420      85.509
  H      -91.953     -19.223      77.932
  H      -90.197     -16.521      84.483
  H      -92.290     -21.850      78.845
  H      -90.153     -22.429      77.680
  H      -91.062     -21.265      76.727
  P      -94.500     -19.839      78.692
  C      -95.927     -18.546      76.875
  O      -94.789     -18.617      77.706
  O      -95.679     -19.751      79.767
  O      -94.492     -21.154      77.976
  H      -96.112     -20.619      79.869
  H      -95.900     -17.638      76.309
  H      -96.811     -18.564      77.478
  H      -95.934     -19.382      76.207

 6  7  8  9  10  11  12  13  14  15  26  29  33  34 0
 6-311+G(2d,p)
 ****
 36  38  39  40  41 0
 6-311+G(2d,p)
 ****
 1  2  3  4  5  16  17  18  19  20  21  22  23  24  25 0
 3-21G
 ****
 27  28  30  31  32  35  37  42  43  44  45  46  47 0
 3-21G
 ****
 48  49 0
 3-21G
 ****


