%nproc=1
%NoSave
%Mem=1900MB
#P OB98/GEN NMR

erre ene a

0 1
  C     -483.236     103.118     352.674
  O     -484.326     102.223     352.757
  H     -482.356     102.644     353.126
  H     -483.461     104.037     353.218
  H     -483.007     103.348     351.625
  P     -485.726     102.729     352.146
  C     -486.201     100.465     350.952
  O     -486.628     101.405     351.939
  C     -487.375      99.578     350.533
  O     -487.533      98.514     351.523
  C     -488.719     100.314     350.429
  O     -489.452      99.788     349.326
  C     -489.425      99.925     351.725
  O     -490.842     100.051     351.616
  C     -488.924      98.494     351.893
  N     -492.360      97.428     355.414
  C     -492.520      97.850     354.106
  N     -493.789      98.012     353.656
  N     -491.516      98.084     353.300
  C     -490.309      97.852     353.863
  C     -490.026      97.448     355.150
  C     -491.142      97.201     356.033
  O     -491.069      96.856     357.210
  N     -488.663      97.367     355.355
  C     -488.134      97.714     354.187
  N     -489.090      98.016     353.254
  O     -485.347     103.154     350.648
  O     -486.394     103.830     352.895
  H     -491.222      99.956     352.511
  H     -485.929     103.876     350.335
  H     -493.176      97.262     355.990
  H     -487.073      97.772     353.980
  H     -489.449      97.785     351.240
  H     -489.072     100.567     352.542
  H     -494.617      97.812     354.211
  H     -488.613     101.397     350.316
  H     -493.925      98.303     352.697
  H     -487.114      99.092     349.585
  H     -485.396      99.850     351.372
  H     -485.826     101.014     350.080
  P     -490.372     100.802     348.493
  C     -489.328     100.181     346.190
  O     -490.498     100.261     346.974
  O     -489.441     102.092     348.339
  O     -491.664     101.140     349.159
  H     -489.767     102.812     348.899
  H     -489.575      99.808     345.218
  H     -488.629      99.520     346.659
  H     -488.893     101.154     346.099

 6  7  8  9  10  11  12  13  14  15  26  29  33  34 0
 6-311+G(2d,p)
 ****
 36  38  39  40  41 0
 6-311+G(2d,p)
 ****
 1  2  3  4  5  16  17  18  19  20  21  22  23  24  25 0
 3-21G
 ****
 27  28  30  31  32  35  37  42  43  44  45  46  47 0
 3-21G
 ****
 48  49 0
 3-21G
 ****


