%nproc=1
%NoSave
%Mem=1900MB
#P OB98/GEN NMR

erre ene a

0 1
  C      408.681    -147.776     255.849
  O      410.030    -147.642     256.259
  H      408.610    -147.528     254.788
  H      408.048    -147.090     256.420
  H      408.342    -148.804     255.995
  P      410.348    -147.982     257.793
  C      412.923    -148.066     257.394
  O      411.836    -147.449     258.065
  C      414.095    -147.087     257.264
  O      413.710    -146.017     256.347
  C      414.497    -146.415     258.587
  O      415.896    -146.102     258.516
  C      413.685    -145.129     258.539
  O      414.142    -144.206     259.501
  C      413.868    -144.774     257.068
  N      412.272    -139.929     257.443
  C      413.303    -140.582     258.020
  N      413.673    -141.869     257.861
  C      412.864    -142.491     256.986
  C      411.779    -141.954     256.313
  C      411.484    -140.603     256.573
  N      410.431    -139.939     255.997
  N      411.187    -142.907     255.499
  C      411.906    -143.996     255.680
  N      412.924    -143.797     256.573
  O      410.508    -149.574     257.794
  O      409.324    -147.523     258.777
  H      413.672    -144.330     260.353
  H      409.662    -149.992     258.042
  H      413.911    -139.994     258.700
  H      411.732    -144.955     255.198
  H      414.873    -144.395     256.859
  H      412.633    -145.324     258.765
  H      414.305    -147.035     259.465
  H      414.944    -147.605     256.802
  H      412.585    -148.377     256.401
  H      413.247    -148.948     257.959
  H      410.276    -138.977     256.249
  H      409.822    -140.438     255.358
  P      416.930    -146.924     259.434
  C      418.394    -146.924     257.267
  O      418.344    -146.991     258.684
  O      416.397    -148.426     259.269
  O      416.969    -146.530     260.876
  H      416.621    -148.942     260.067
  H      419.412    -146.983     256.943
  H      417.968    -145.999     256.938
  H      417.840    -147.739     256.852

 6  7  8  9  10  11  12  13  14  15  25  28  32  33  34  35 0
 6-311+G(2d,p)
 ****
 36  37  40 0
 6-311+G(2d,p)
 ****
 1  2  3  4  5  16  17  18  19  20  21  22  23  24 0
 3-21G
 ****
 26  27  29  30  31  38  39 41  42  43  44  45  46  47  48 0
 3-21G
 ****


