%nproc=1
%NoSave
%Mem=1900MB
#P OB98/GEN NMR

erre ene a

0 1
  C      150.542     248.507     -62.867
  O      151.625     247.638     -62.579
  P      153.047     248.302     -62.247
  C      154.280     246.537     -63.679
  O      154.143     247.137     -62.398
  C      155.616     245.814     -63.800
  O      156.681     246.803     -63.851
  C      155.927     244.862     -62.635
  O      156.475     243.642     -63.155
  C      157.034     245.576     -61.877
  O      157.850     244.670     -61.143
  C      157.746     246.284     -63.029
  N      162.394     247.306     -61.341
  C      161.891     246.143     -61.892
  N      162.735     245.089     -61.945
  N      160.672     246.022     -62.345
  C      159.950     247.167     -62.255
  C      160.339     248.381     -61.738
  C      161.673     248.482     -61.184
  O      162.146     249.454     -60.604
  N      159.335     249.309     -61.837
  C      158.339     248.660     -62.407
  N      158.647     247.342     -62.635
  O      152.966     248.545     -60.667
  O      153.344     249.569     -62.973
  H      158.600     245.184     -60.788
  H      153.129     249.488     -60.468
  H      163.335     247.338     -60.991
  H      157.373     249.089     -62.641
  H      158.318     245.563     -63.628
  H      156.587     246.289     -61.177
  H      163.696     245.124     -61.648
  H      155.067     244.637     -61.995
  H      162.390     244.235     -62.366
  H      155.637     245.276     -64.756
  H      154.220     247.313     -64.450
  H      153.457     245.830     -63.828
  P      155.983     242.290     -62.440
  C      158.205     241.637     -61.249
  O      157.288     241.376     -62.295
  O      155.130     241.560     -63.580
  O      155.197     242.517     -61.191
  H      154.478     240.952     -63.181
  H      157.817     242.368     -60.533
  H      159.132     242.019     -61.676
  H      158.414     240.704     -60.720
  H      149.664     247.929     -63.068
  H      150.780     249.102     -63.724
  H      150.364     249.146     -62.027

 3  4  5  6  7  8  9  10  11  12  23  26  30  31  33  0
 6-311+G(2d,p)
 ****
 35  36  37  38 0
 6-311+G(2d,p)
 ****
 1  2  13  14  15  16  17  18  19  20  21  22  24  25  27  28  29 0
 3-21G
 ****
 32  34  39  40  41  42  43  44  45  46  47  48  49 0
 3-21G
 ****


