%nproc=1
%NoSave
%Mem=1900MB
#P OB98/GEN NMR

erre ene a

0 1
  C      -88.944     198.868    -261.002
  O      -89.621     198.766    -262.241
  H      -87.914     198.527    -261.135
  H      -89.424     198.239    -260.248
  H      -88.927     199.907    -260.661
  P      -91.161     199.207    -262.301
  C      -90.442     201.464    -263.333
  O      -91.160     200.807    -262.292
  C      -91.409     201.958    -264.402
  O      -91.994     200.844    -265.109
  C      -92.575     202.783    -263.856
  O      -92.168     204.118    -263.615
  C      -93.567     202.651    -265.000
  O      -93.178     203.522    -266.081
  C      -93.376     201.179    -265.407
  N      -97.991     199.082    -265.264
  C      -97.485     200.067    -266.097
  N      -98.352     200.595    -266.988
  N      -96.252     200.506    -266.045
  C      -95.528     199.931    -265.056
  C      -95.923     198.965    -264.163
  C      -97.264     198.445    -264.267
  O      -97.745     197.566    -263.559
  N      -94.922     198.682    -263.259
  C      -93.922     199.451    -263.636
  N      -94.237     200.238    -264.711
  O      -92.066     198.595    -261.277
  O      -91.610     198.846    -263.794
  H      -93.708     203.262    -266.857
  H      -91.996     197.954    -263.841
  H      -98.951     198.801    -265.346
  H      -92.939     199.468    -263.164
  H      -93.524     201.022    -266.481
  H      -94.585     202.916    -264.718
  H      -99.354     200.498    -266.879
  H      -93.016     202.320    -262.963
  H      -98.019     201.347    -267.574
  H      -90.832     202.535    -265.137
  H      -89.740     200.741    -263.754
  H      -89.878     202.312    -262.926
  P      -92.989     205.069    -262.607
  C      -91.309     204.471    -260.731
  O      -92.666     204.483    -261.148
  O      -94.437     205.209    -262.918
  O      -92.179     206.443    -262.612
  H      -92.476     207.073    -263.318
  H      -91.242     204.057    -259.747
  H      -90.929     205.471    -260.724
  H      -90.733     203.876    -261.408

 6  7  8  9  10  11  12  13  14  15  26  29  33  34 0
 6-311+G(2d,p)
 ****
 36  38  39  40  41 0
 6-311+G(2d,p)
 ****
 1  2  3  4  5  16  17  18  19  20  21  22  23  24  25 0
 3-21G
 ****
 27  28  30  31  32  35  37  42  43  44  45  46  47 0
 3-21G
 ****
 48  49 0
 3-21G
 ****


