%nproc=1
%NoSave
%Mem=1900MB
#P OB98/GEN NMR

erre ene a

0 1
  C       -6.831     748.854    -678.719
  O       -6.872     749.084    -680.119
  H       -7.848     748.642    -678.374
  H       -6.473     749.747    -678.204
  H       -6.195     747.998    -678.489
  P       -5.494     749.223    -680.917
  C       -6.057     747.767    -682.980
  O       -5.839     749.088    -682.477
  C       -6.712     747.833    -684.361
  O       -7.941     748.577    -684.301
  C       -5.851     748.542    -685.410
  O       -4.794     747.703    -685.855
  C       -6.905     748.858    -686.466
  O       -7.187     747.702    -687.272
  C       -8.124     749.215    -685.583
  N       -8.312     750.656    -685.424
  C       -8.737     751.362    -686.553
  O       -8.917     750.820    -687.656
  N       -8.941     752.707    -686.378
  C       -8.682     753.420    -685.247
  O       -8.823     754.637    -685.164
  C       -8.206     752.636    -684.090
  C       -8.045     751.308    -684.233
  O       -4.370     748.342    -680.451
  O       -5.118     750.778    -680.772
  H       -6.378     747.516    -687.791
  H       -4.453     750.888    -680.069
  H       -9.227     753.232    -687.195
  H       -7.981     753.165    -683.168
  H       -7.692     750.716    -683.392
  H       -9.049     748.788    -686.010
  H       -6.603     749.652    -687.143
  H       -5.463     749.489    -685.019
  H       -6.940     746.806    -684.677
  H       -6.716     747.231    -682.287
  H       -5.096     747.245    -683.018
  P       -3.357     748.324    -686.194
  C       -1.966     747.930    -684.071
  O       -2.262     747.461    -685.374
  O       -3.235     749.797    -686.015
  O       -3.096     747.895    -687.706
  H       -3.204     748.678    -688.300
  H       -1.235     747.292    -683.620
  H       -2.857     747.926    -683.479
  H       -1.582     748.927    -684.129

 6  7  8  9  10  11  12  13  14  15  16  26  31  32  33  34  35 0
 6-311+G(2d,p)
 ****
 36  37 0
 6-311+G(2d,p)
 ****
 1  2  3  4  5  17  18  19  20  21  22  23  24  25 0
 3-21G
 ****
 27  28  29  30  38  39  40  41  42  43  44  45 0
 3-21G
 ****


