%nproc=1
%NoSave
%Mem=1900MB
#P OB98/GEN NMR

erre ene a

0 1
  C        0.491      -6.060     -72.098
  O        1.774      -6.506     -72.495
  H        0.352      -5.033     -72.448
  H        0.415      -6.075     -71.008
  H       -0.287      -6.691     -72.536
  P        2.083      -8.064     -72.284
  C        3.228      -7.717     -69.949
  O        2.181      -8.320     -70.698
  C        2.981      -7.909     -68.456
  O        1.591      -7.705     -68.136
  C        3.263      -9.315     -67.951
  O        4.643      -9.603     -67.886
  C        2.588      -9.266     -66.587
  O        3.446      -8.696     -65.591
  C        1.373      -8.345     -66.856
  N        0.121      -9.077     -66.808
  C       -0.795      -8.638     -65.843
  O       -0.519      -7.679     -65.120
  N       -1.974      -9.320     -65.698
  C       -2.210     -10.364     -66.430
  N       -3.385     -11.015     -66.214
  C       -1.272     -10.861     -67.458
  C       -0.135     -10.178     -67.592
  O        3.602      -8.183     -72.767
  O        1.144      -8.988     -72.983
  H        3.581      -7.760     -65.848
  H        4.191      -7.514     -72.380
  H       -1.521     -11.728     -68.052
  H        0.610     -10.472     -68.322
  H        1.328      -7.541     -66.109
  H        2.314     -10.265     -66.238
  H        2.732     -10.051     -68.569
  H        3.578      -7.163     -67.913
  H       -3.973     -10.673     -65.463
  H        3.307      -6.651     -70.188
  H       -3.640     -11.881     -66.667
  H        4.167      -8.195     -70.246
  P        5.228     -10.997     -68.411
  C        6.222     -11.878     -66.202
  O        5.183     -12.016     -67.167
  O        6.553     -10.919     -69.091
  O        4.050     -11.558     -69.341
  H        3.200     -11.692     -68.888
  H        6.088     -12.604     -65.427
  H        6.188     -10.895     -65.780
  H        7.170     -12.031     -66.674

 6  7  8  9  10  11  12  13  14  15  16  26  30  31  32  33  35 0
 6-311+G(2d,p)
 ****
 37  38 0
 6-311+G(2d,p)
 ****
 1  2  3  4  5  17  18  19  20  21  22  23  24  25 0
 3-21G
 ****
 27  28  29  34  36  39  40  41  42  43  44  45  46 0
 3-21G
 ****


