%nproc=1
%NoSave
%Mem=1900MB
#P OB98/GEN NMR

erre ene a

0 1
  C     -100.345     146.911    -135.843
  O     -100.751     147.893    -136.789
  P     -102.102     148.708    -136.481
  C     -103.585     146.915    -137.636
  O     -103.268     147.608    -136.434
  C     -105.096     146.758    -137.782
  O     -105.637     146.078    -136.630
  C     -105.864     148.066    -137.885
  O     -105.848     148.596    -139.202
  C     -107.265     147.609    -137.514
  O     -107.886     146.975    -138.649
  C     -106.985     146.578    -136.416
  N     -109.881     146.794    -132.207
  C     -110.088     146.222    -133.412
  N     -109.268     146.214    -134.486
  C     -108.157     146.927    -134.240
  C     -107.828     147.599    -133.075
  C     -108.744     147.507    -132.015
  N     -108.520     148.070    -130.778
  N     -106.604     148.216    -133.202
  C     -106.192     147.918    -134.416
  N     -107.093     147.129    -135.080
  O     -102.379     149.480    -137.858
  O     -102.026     149.640    -135.320
  H     -108.733     146.602    -138.336
  H     -102.935     150.265    -137.693
  H     -111.026     145.687    -133.523
  H     -105.256     148.236    -134.848
  H     -107.660     145.716    -136.473
  H     -107.918     148.437    -137.215
  H     -105.509     148.796    -137.145
  H     -105.286     146.129    -138.663
  H     -103.123     145.926    -137.612
  H     -109.132     147.805    -130.022
  H     -107.592     148.424    -130.577
  H     -103.177     147.474    -138.487
  P     -106.227     150.149    -139.359
  C     -108.712     149.892    -140.073
  O     -107.797     150.235    -139.051
  O     -106.127     150.386    -140.940
  O     -105.346     151.074    -138.588
  H     -105.939     151.322    -141.132
  H     -109.689     149.705    -139.621
  H     -108.394     148.988    -140.602
  H     -108.804     150.721    -140.779
  H      -99.437     146.451    -136.174
  H     -101.109     146.167    -135.751
  H     -100.184     147.376    -134.893

 3  4  5  6  7  8  9  10  11  12  22  25  29  30  31  32 0
 6-311+G(2d,p)
 ****
 33  36  37 0
 6-311+G(2d,p)
 ****
 1  2  13  14  15  16  17  18  19  20  21  23  24  26 0
 3-21G
 ****
 27  28  34  35  38  39  40  41  42  43  44  45  46  47  48 0
 3-21G
 ****


