%nproc=1
%NoSave
%Mem=1900MB
#P OB98/GEN NMR

erre ene a

0 1
  C     -345.444    -180.086     133.058
  O     -344.758    -178.858     132.955
  H     -344.958    -180.814     132.398
  H     -346.482    -179.971     132.736
  H     -345.409    -180.468     134.081
  P     -345.172    -177.662     133.935
  C     -342.948    -176.399     134.261
  O     -343.882    -177.311     134.820
  C     -341.618    -177.111     134.014
  O     -341.746    -178.042     132.913
  C     -340.480    -176.173     133.628
  O     -339.978    -175.482     134.756
  C     -339.499    -177.151     132.997
  O     -338.741    -177.843     134.003
  C     -340.457    -178.118     132.262
  N     -340.569    -177.829     130.833
  C     -339.714    -178.533     129.983
  O     -338.873    -179.332     130.392
  N     -339.838    -178.253     128.654
  C     -340.631    -177.292     128.103
  O     -340.639    -177.019     126.906
  C     -341.496    -176.562     129.044
  C     -341.427    -176.862     130.345
  O     -346.432    -177.864     134.709
  O     -345.287    -176.392     132.958
  H     -338.379    -177.156     134.597
  H     -346.229    -176.188     132.806
  H     -339.217    -178.745     128.025
  H     -342.149    -175.798     128.645
  H     -342.053    -176.330     131.054
  H     -340.111    -179.155     132.374
  H     -338.789    -176.656     132.342
  H     -340.815    -175.465     132.863
  H     -341.359    -177.687     134.912
  H     -342.792    -175.576     134.969
  H     -343.354    -175.999     133.328
  P     -340.518    -174.017     135.103
  C     -340.247    -173.641     137.630
  O     -341.128    -174.051     136.585
  O     -341.412    -173.407     134.069
  O     -339.187    -173.151     135.281
  H     -339.176    -172.428     134.621
  H     -340.755    -173.703     138.570
  H     -339.936    -172.632     137.459
  H     -339.390    -174.281     137.645

 6  7  8  9  10  11  12  13  14  15  16  26  31  32  33  34  35 0
 6-311+G(2d,p)
 ****
 36  37 0
 6-311+G(2d,p)
 ****
 1  2  3  4  5  17  18  19  20  21  22  23  24  25 0
 3-21G
 ****
 27  28  29  30  38  39  40  41  42  43  44  45 0
 3-21G
 ****


