%nproc=1
%NoSave
%Mem=1900MB
#P OB98/GEN NMR

erre ene a

0 1
  C       42.706       4.172     -60.130
  O       41.585       4.648     -59.375
  P       40.268       3.739     -59.330
  C       39.908       4.274     -61.849
  O       39.329       4.161     -60.559
  C       38.842       4.660     -62.879
  O       37.886       3.595     -63.082
  C       38.025       5.882     -62.483
  O       38.697       7.092     -62.809
  C       36.802       5.716     -63.370
  O       37.098       6.174     -64.705
  C       36.597       4.197     -63.358
  N       31.693       4.107     -62.124
  C       32.321       4.629     -63.237
  N       31.523       5.206     -64.162
  N       33.613       4.590     -63.427
  C       34.282       3.967     -62.429
  C       33.774       3.412     -61.277
  C       32.344       3.476     -61.071
  O       31.735       3.043     -60.099
  N       34.767       2.878     -60.500
  C       35.873       3.090     -61.188
  N       35.634       3.764     -62.359
  O       39.476       4.322     -58.065
  O       40.535       2.277     -59.188
  H       36.267       6.111     -65.212
  H       38.919       3.624     -57.674
  H       30.694       4.169     -62.025
  H       36.862       2.777     -60.882
  H       36.253       3.812     -64.325
  H       35.948       6.303     -63.017
  H       30.517       5.226     -64.104
  H       37.735       5.842     -61.427
  H       31.962       5.564     -65.001
  H       39.347       4.859     -63.833
  H       40.380       3.332     -62.140
  H       40.715       5.011     -61.813
  P       39.589       7.783     -61.670
  C       37.864       9.718     -61.532
  O       39.215       9.339     -61.698
  O       41.063       7.726     -62.291
  O       39.523       7.118     -60.338
  H       41.722       7.642     -61.577
  H       37.817      10.802     -61.416
  H       37.436       9.251     -60.642
  H       37.283       9.434     -62.414
  H       43.505       4.881     -60.067
  H       42.420       4.047     -61.153
  H       43.030       3.233     -59.733

 3  4  5  6  7  8  9  10  11  12  23  26  30  31 0
 6-311+G(2d,p)
 ****
 33  35  36  37  38 0
 6-311+G(2d,p)
 ****
 1  2  13  14  15  16  17  18  19  20  21  22  24  25 0
 3-21G
 ****
 27  28  29  32  34  39  40  41  42  43  44  45  46  47  48  49 0
 3-21G
 ****


