%nproc=1
%NoSave
%Mem=1900MB
#P OB98/GEN NMR

erre ene a

0 1
  C     -299.908     211.940     416.817
  O     -298.811     211.159     417.245
  H     -299.526     212.812     416.278
  H     -300.483     212.287     417.678
  H     -300.553     211.370     416.145
  P     -299.094     209.734     417.918
  C     -297.984     207.407     417.889
  O     -298.005     208.715     417.328
  C     -297.032     206.517     417.093
  O     -297.502     206.384     415.733
  C     -295.617     207.074     416.984
  O     -294.898     206.909     418.190
  C     -295.089     206.275     415.805
  O     -294.644     204.977     416.217
  C     -296.340     206.163     414.903
  N     -296.296     207.109     413.789
  C     -296.763     206.644     412.566
  O     -297.200     205.509     412.392
  N     -296.647     207.515     411.513
  C     -295.999     208.717     411.547
  O     -295.704     209.347     410.535
  C     -295.586     209.186     412.876
  C     -295.741     208.369     413.919
  O     -300.507     209.258     417.856
  O     -298.611     209.930     419.433
  H     -299.393     210.062     420.003
  H     -295.395     204.581     416.708
  H     -296.940     207.168     410.613
  H     -295.137     210.169     412.955
  H     -295.414     208.677     414.909
  H     -296.426     205.147     414.496
  H     -294.247     206.780     415.328
  H     -295.658     208.133     416.706
  H     -297.028     205.520     417.552
  H     -298.998     206.990     417.843
  H     -297.675     207.474     418.936
  P     -293.559     207.745     418.456
  C     -292.368     208.823     420.461
  O     -293.588     208.281     419.965
  O     -293.245     208.779     417.425
  O     -292.408     206.629     418.499
  H     -291.681     206.899     417.909
  H     -292.506     209.147     421.471
  H     -292.076     209.656     419.856
  H     -291.605     208.073     420.428

 6  7  8  9  10  11  12  13  14  15  16  27  31  32  33  34  35 0
 6-311+G(2d,p)
 ****
 36  37 0
 6-311+G(2d,p)
 ****
 1  2  3  4  5  17  18  19  20  21  22  23  24  25 0
 3-21G
 ****
 26  28  29  30  38  39  40  41  42  43  44  45 0
 3-21G
 ****


