%nproc=1
%NoSave
%Mem=1900MB
#P OB98/GEN NMR

erre ene a

0 1
  C      235.961      93.213    -397.162
  O      235.115      92.955    -396.029
  P      235.108      91.474    -395.419
  C      233.627      90.579    -397.367
  O      234.827      90.446    -396.624
  C      233.819      90.062    -398.792
  O      234.399      88.736    -398.806
  C      232.523      89.964    -399.596
  O      232.153      91.208    -400.157
  C      232.933      88.994    -400.694
  O      233.669      89.706    -401.719
  C      233.859      88.022    -399.943
  N      232.682      83.242    -401.109
  C      233.413      84.166    -401.819
  N      233.920      83.762    -403.003
  N      233.639      85.388    -401.395
  C      233.089      85.646    -400.185
  C      232.337      84.814    -399.390
  C      232.092      83.464    -399.876
  O      231.426      82.602    -399.294
  N      231.946      85.432    -398.237
  C      232.479      86.639    -398.316
  N      233.164      86.824    -399.495
  O      233.733      91.439    -394.596
  O      236.286      91.161    -394.555
  H      233.773      89.086    -402.464
  H      233.812      90.801    -393.859
  H      232.533      82.310    -401.482
  H      232.383      87.409    -397.561
  H      234.701      87.690    -400.559
  H      232.077      88.535    -401.187
  H      233.826      82.829    -403.362
  H      231.718      89.525    -398.980
  H      234.493      84.428    -403.521
  H      234.506      90.748    -399.316
  H      233.309      91.629    -397.387
  H      232.823      90.041    -396.849
  P      230.765      91.868    -399.685
  C      229.862      91.123    -401.998
  O      229.627      91.225    -400.615
  O      230.887      93.376    -400.207
  O      230.521      91.809    -398.203
  H      230.404      93.977    -399.603
  H      229.066      90.512    -402.451
  H      230.826      90.627    -402.201
  H      229.859      92.116    -402.463
  H      235.861      94.237    -397.456
  H      235.673      92.579    -397.974
  H      236.979      93.015    -396.899

 3  4  5  6  7  8  9  10  11  12  23  26  30  31 0
 6-311+G(2d,p)
 ****
 33  35  36  37  38 0
 6-311+G(2d,p)
 ****
 1  2  13  14  15  16  17  18  19  20  21  22  24  25 0
 3-21G
 ****
 27  28  29  32  34  39  40  41  42  43  44  45  46  47  48  49 0
 3-21G
 ****


