%nproc=1
%NoSave
%Mem=1900MB
#P OB98/GEN NMR

erre ene a

0 1
  C     -709.776     700.207     425.359
  O     -708.440     700.686     425.494
  P     -707.311     699.566     425.715
  C     -706.453     699.335     423.277
  O     -707.161     698.725     424.348
  C     -706.733     698.632     421.958
  O     -706.327     697.228     422.017
  C     -708.196     698.642     421.523
  O     -708.237     698.726     420.096
  C     -708.698     697.278     421.968
  O     -709.889     696.919     421.287
  C     -707.484     696.434     421.607
  N     -708.960     691.631     421.133
  C     -709.230     692.727     420.352
  N     -709.987     692.501     419.238
  N     -708.813     693.929     420.618
  C     -708.048     694.009     421.740
  C     -707.686     692.984     422.592
  C     -708.190     691.656     422.285
  O     -707.972     690.653     422.966
  N     -706.885     693.453     423.605
  C     -706.813     694.742     423.386
  N     -707.456     695.127     422.242
  O     -708.021     698.531     426.719
  O     -706.029     700.100     426.283
  H     -710.042     695.966     421.409
  H     -707.702     698.686     427.628
  H     -709.312     690.718     420.897
  H     -706.284     695.445     424.003
  H     -707.398     696.255     420.526
  H     -708.883     697.243     423.040
  H     -710.288     691.594     418.954
  H     -708.792     699.458     421.973
  H     -710.161     693.280     418.615
  H     -706.121     699.106     421.177
  H     -705.378     699.317     423.487
  H     -706.718     700.407     423.237
  P     -708.425     700.165     419.427
  C     -706.132     700.154     418.222
  O     -706.972     700.777     419.184
  O     -709.007     701.034     420.646
  O     -709.347     700.181     418.257
  H     -709.695     701.657     420.304
  H     -705.434     700.881     417.842
  H     -706.706     699.720     417.397
  H     -705.566     699.359     418.723
  H     -710.439     701.035     425.217
  H     -710.055     699.674     426.244
  H     -709.837     699.553     424.515

 3  4  5  6  7  8  9  10  11  12  23  26  30  31 0
 6-311+G(2d,p)
 ****
 33  35  36  37  38 0
 6-311+G(2d,p)
 ****
 1  2  13  14  15  16  17  18  19  20  21  22  24  25 0
 3-21G
 ****
 27  28  29  32  34  39  40  41  42  43  44  45  46  47  48  49 0
 3-21G
 ****


