%nproc=1
%NoSave
%Mem=1900MB
#P OB98/GEN NMR

erre ene a

0 1
  C     -207.148    -313.519     171.661
  O     -205.828    -313.217     172.116
  P     -204.666    -313.117     171.028
  C     -202.808    -314.494     172.214
  O     -203.244    -313.197     171.790
  C     -201.514    -314.404     173.031
  O     -200.460    -313.847     172.179
  C     -201.589    -313.468     174.248
  O     -202.013    -314.026     175.491
  C     -200.120    -313.086     174.425
  O     -199.427    -314.125     175.172
  C     -199.585    -313.040     172.995
  N     -197.774    -308.303     173.785
  C     -197.674    -309.452     174.509
  N     -198.181    -310.670     174.228
  C     -198.855    -310.646     173.061
  C     -199.038    -309.568     172.211
  C     -198.470    -308.343     172.614
  N     -198.578    -307.176     171.879
  N     -199.776    -309.924     171.108
  C     -200.062    -311.205     171.301
  N     -199.507    -311.688     172.463
  O     -204.778    -312.030     170.023
  O     -204.730    -314.565     170.315
  H     -199.798    -314.970     174.854
  H     -204.543    -314.447     169.365
  H     -197.110    -309.376     175.435
  H     -200.648    -311.805     170.630
  H     -198.574    -313.473     172.912
  H     -199.992    -312.152     174.993
  H     -202.174    -312.571     174.025
  H     -201.206    -315.399     173.343
  H     -202.641    -315.125     171.323
  H     -198.175    -306.343     172.268
  H     -199.128    -307.180     171.037
  H     -203.627    -314.951     172.771
  P     -202.804    -313.138     176.572
  C     -201.994    -314.801     178.440
  O     -203.060    -314.127     177.823
  O     -204.021    -312.450     176.062
  O     -201.658    -312.161     177.127
  H     -200.969    -312.610     177.650
  H     -202.345    -315.237     179.377
  H     -201.175    -314.107     178.652
  H     -201.645    -315.605     177.791
  H     -207.815    -313.553     172.497
  H     -207.147    -314.468     171.167
  H     -207.472    -312.762     170.977

 3  4  5  6  7  8  9  10  11  12  22  25  29  30  31  32 0
 6-311+G(2d,p)
 ****
 33  36  37 0
 6-311+G(2d,p)
 ****
 1  2  13  14  15  16  17  18  19  20  21  23  24  26 0
 3-21G
 ****
 27  28  34  35  38  39  40  41  42  43  44  45  46  47  48 0
 3-21G
 ****


