%nproc=1
%NoSave
%Mem=1900MB
#P OB98/GEN NMR

erre ene a

0 1
  C     -145.400    -212.272     118.405
  O     -145.144    -211.412     117.309
  P     -143.886    -211.653     116.354
  C     -141.969    -210.014     117.083
  O     -142.561    -211.293     117.164
  C     -140.443    -210.171     117.054
  O     -139.959    -210.562     118.355
  C     -140.010    -211.236     116.049
  O     -139.686    -210.644     114.803
  C     -138.822    -211.879     116.741
  O     -137.635    -211.087     116.545
  C     -139.261    -211.831     118.223
  N     -140.154    -212.895     118.720
  C     -139.699    -214.210     118.767
  O     -138.564    -214.551     118.446
  N     -140.618    -215.142     119.182
  C     -141.895    -214.881     119.583
  O     -142.769    -215.729     119.717
  C     -142.220    -213.463     119.767
  C     -141.361    -212.553     119.314
  O     -144.005    -210.465     115.292
  O     -143.828    -212.991     115.691
  H     -137.357    -211.207     115.621
  H     -144.420    -210.780     114.465
  H     -140.336    -216.112     119.086
  H     -143.172    -213.209     120.217
  H     -141.598    -211.495     119.403
  H     -138.392    -211.802     118.888
  H     -138.606    -212.859     116.320
  H     -140.799    -211.992     115.932
  H     -139.992    -209.203     116.802
  H     -142.274    -209.405     117.944
  H     -142.314    -209.494     116.183
  P     -140.255    -211.280     113.450
  C     -138.749    -213.341     113.199
  O     -140.017    -212.861     113.597
  O     -139.753    -210.671     112.185
  O     -141.841    -211.107     113.606
  H     -142.137    -210.309     113.116
  H     -138.652    -214.382     113.511
  H     -137.952    -212.751     113.663
  H     -138.660    -213.289     112.107
  H     -146.281    -211.945     118.917
  H     -144.568    -212.250     119.077
  H     -145.544    -213.271     118.049

 3  4  5  6  7  8  9  10  11  12  13  23  28  29  30  31  32 0
 6-311+G(2d,p)
 ****
 33  34 0
 6-311+G(2d,p)
 ****
 1  2  14  15  16  17  18  19  20  21  22  24  25  26  27 0
 3-21G
 ****
 35  36  37  38  39  40  41  42  43  44  45 0
 3-21G
 ****


