%nproc=1
%NoSave
%Mem=1900MB
#P OB98/GEN NMR

erre ene a

0 1
  C     -358.407      83.497       7.844
  O     -359.146      83.883       6.697
  P     -359.361      85.444       6.417
  C     -360.798      87.362       7.427
  O     -360.441      85.990       7.472
  C     -361.322      87.820       8.793
  O     -360.232      87.789       9.764
  C     -361.897      89.243       8.798
  O     -362.981      89.270       9.742
  C     -360.740      90.065       9.329
  O     -361.140      91.326       9.844
  C     -360.183      89.096      10.376
  N     -358.822      89.439      10.801
  C     -358.686      90.439      11.758
  O     -359.635      91.046      12.257
  N     -357.401      90.780      12.087
  C     -356.270      90.294      11.502
  O     -355.150      90.726      11.759
  C     -356.470      89.240      10.497
  C     -357.718      88.867      10.198
  O     -360.147      85.462       5.021
  O     -358.101      86.244       6.357
  H     -361.807      91.161      10.536
  H     -359.534      85.656       4.289
  H     -357.285      91.493      12.786
  H     -355.593      88.816      10.029
  H     -357.902      88.102       9.447
  H     -360.842      89.065      11.254
  H     -360.021      90.245       8.524
  H     -362.244      89.581       7.815
  H     -362.081      87.097       9.135
  H     -361.577      87.506       6.679
  H     -359.925      87.961       7.135
  P     -364.199      90.281       9.460
  C     -364.339      92.761       8.651
  O     -363.550      91.713       9.168
  O     -364.811      90.429      10.936
  O     -365.180      89.774       8.453
  H     -364.125      90.530      11.619
  H     -365.366      92.720       9.031
  H     -364.360      92.697       7.563
  H     -363.895      93.719       8.937
  H     -358.352      82.429       7.890
  H     -358.892      83.868       8.722
  H     -357.419      83.903       7.785

 3  4  5  6  7  8  9  10  11  12  13  23  28  29  30  31  32 0
 6-311+G(2d,p)
 ****
 33  34 0
 6-311+G(2d,p)
 ****
 1  2  14  15  16  17  18  19  20  21  22  24  25  26 0
 3-21G
 ****
 27  35  36  37  38  39  40  41  42  43  44  45 0
 3-21G
 ****


