%nproc=1
%NoSave
%Mem=1900MB
#P OB98/GEN NMR

erre ene a

0 1
  C      235.152    -395.162      43.093
  O      234.200    -394.179      42.680
  P      234.527    -393.247      41.421
  C      232.088    -392.724      40.735
  O      233.326    -392.207      41.207
  C      230.921    -391.989      41.405
  O      230.900    -392.224      42.833
  C      231.017    -390.476      41.263
  O      230.816    -389.943      39.968
  C      230.094    -389.990      42.367
  O      228.728    -389.995      41.952
  C      230.333    -391.054      43.464
  N      231.185    -390.568      44.548
  C      230.535    -389.926      45.596
  O      229.322    -389.725      45.618
  N      231.336    -389.485      46.614
  C      232.695    -389.589      46.668
  O      233.367    -389.155      47.594
  C      233.328    -390.254      45.519
  C      232.559    -390.706      44.527
  O      234.981    -393.956      40.190
  O      235.701    -392.301      41.979
  H      228.666    -389.454      41.143
  H      236.363    -392.196      41.268
  H      230.882    -389.023      47.387
  H      234.407    -390.348      45.524
  H      233.005    -391.201      43.671
  H      229.378    -391.369      43.904
  H      230.332    -388.967      42.670
  H      232.035    -390.175      41.548
  H      229.985    -392.372      40.994
  H      232.032    -393.795      40.943
  H      232.050    -392.618      39.645
  P      231.930    -389.993      38.817
  C      230.055    -390.581      37.125
  O      231.198    -389.803      37.400
  O      232.970    -391.055      38.914
  O      232.642    -388.563      39.008
  H      233.586    -388.658      38.776
  H      229.702    -390.334      36.119
  H      229.259    -390.358      37.838
  H      230.300    -391.644      37.157
  H      234.773    -395.690      43.943
  H      236.072    -394.681      43.353
  H      235.324    -395.851      42.292

 3  4  5  6  7  8  9  10  11  12  13  23  28  29  30  31  32 0
 6-311+G(2d,p)
 ****
 33  34 0
 6-311+G(2d,p)
 ****
 1  2  14  15  16  17  18  19  20  21  22  24  25  26  27 0
 3-21G
 ****
 35  36  37  38  39  40  41  42  43  44  45 0
 3-21G
 ****


