%nproc=1
%NoSave
%Mem=1900MB
#P OB98/GEN NMR

erre ene a

0 1
  C     -394.591    -497.301       4.578
  O     -395.759    -498.126       4.700
  P     -395.596    -499.537       5.447
  C     -396.134    -501.118       3.446
  O     -396.542    -500.617       4.722
  C     -397.224    -501.985       2.811
  O     -397.706    -502.983       3.762
  C     -398.459    -501.186       2.361
  O     -399.045    -501.852       1.230
  C     -399.397    -501.326       3.539
  O     -400.747    -501.034       3.176
  C     -399.127    -502.773       3.946
  N     -401.249    -506.182       6.992
  C     -401.062    -506.211       5.628
  N     -401.459    -507.324       4.976
  N     -400.514    -505.226       4.940
  C     -400.124    -504.194       5.741
  C     -400.266    -504.047       7.092
  C     -400.897    -505.134       7.833
  O     -401.096    -505.160       9.038
  N     -399.779    -502.843       7.530
  C     -399.339    -502.260       6.422
  N     -399.499    -503.047       5.313
  O     -396.327    -499.290       6.851
  O     -394.170    -499.958       5.647
  H     -400.969    -501.582       2.384
  H     -395.669    -499.234       7.558
  H     -401.680    -506.972       7.464
  H     -398.908    -501.261       6.373
  H     -399.665    -503.497       3.311
  H     -399.104    -500.630       4.339
  H     -401.836    -508.143       5.442
  H     -398.258    -500.146       2.092
  H     -401.294    -507.390       3.980
  H     -396.797    -502.515       1.954
  H     -395.220    -501.709       3.557
  H     -395.873    -500.268       2.803
  P     -398.445    -501.492      -0.216
  C     -400.466    -500.317      -1.361
  O     -399.689    -501.492      -1.236
  O     -397.625    -502.810      -0.628
  O     -397.589    -500.269      -0.243
  H     -396.925    -502.580      -1.271
  H     -400.193    -499.823      -2.297
  H     -400.296    -499.615      -0.529
  H     -401.520    -500.593      -1.400
  H     -394.844    -496.398       4.063
  H     -393.839    -497.827       4.028
  H     -394.219    -497.063       5.553

 3  4  5  6  7  8  9  10  11  12  23  26  30  31 0
 6-311+G(2d,p)
 ****
 33  35  36  37  38 0
 6-311+G(2d,p)
 ****
 1  2  13  14  15  16  17  18  19  20  21  22  24  25 0
 3-21G
 ****
 27  28  29  32  34  39  40  41  42  43  44  45  46  47  48  49 0
 3-21G
 ****


