%nproc=1
%NoSave
%Mem=1900MB
#P OB98/GEN NMR

erre ene a

0 1
  C     -465.702     658.667       1.609
  O     -466.092     658.681       2.966
  H     -466.224     657.870       1.071
  H     -465.961     659.628       1.156
  H     -464.618     658.523       1.529
  P     -465.888     657.312       3.782
  C     -468.259     656.269       3.627
  O     -466.918     656.250       3.155
  C     -468.771     654.846       3.811
  O     -468.840     654.172       2.537
  C     -467.886     653.962       4.685
  O     -468.081     654.222       6.074
  C     -468.400     652.580       4.295
  O     -469.616     652.295       5.009
  C     -468.694     652.749       2.798
  N     -467.688     650.243      -1.572
  C     -468.854     650.621      -0.997
  N     -469.048     651.269       0.167
  C     -467.872     651.554       0.757
  C     -466.606     651.237       0.287
  C     -466.535     650.545      -0.933
  N     -465.339     650.152      -1.505
  N     -465.636     651.704       1.145
  C     -466.301     652.292       2.123
  N     -467.656     652.222       1.930
  O     -466.524     657.634       5.219
  O     -464.477     656.844       3.900
  H     -469.352     652.082       5.929
  H     -466.005     657.176       5.904
  H     -469.754     650.359      -1.550
  H     -465.845     652.782       2.976
  H     -469.641     652.271       2.516
  H     -467.693     651.779       4.524
  H     -466.834     654.049       4.408
  H     -469.788     654.904       4.220
  H     -468.894     656.784       2.898
  H     -465.344     649.841      -2.461
  H     -464.481     650.388      -1.018
  H     -468.290     656.813       4.575
  P     -466.778     654.527       6.955
  C     -466.432     652.004       7.445
  O     -465.885     653.194       6.894
  O     -467.346     654.520       8.456
  O     -466.085     655.806       6.628
  H     -466.773     655.070       9.026
  H     -465.730     651.204       7.334
  H     -467.338     651.757       6.932
  H     -466.639     652.155       8.484

 6  7  8  9  10  11  12  13  14  15  25  28  32  33  34  35 0
 6-311+G(2d,p)
 ****
 36  39  40 0
 6-311+G(2d,p)
 ****
 1  2  3  4  5  16  17  18  19  20  21  22  23  24 0
 3-21G
 ****
 26  27  29  30  31  37  38  41  42  43  44  45  46  47  48 0
 3-21G
 ****


