%nproc=1
%NoSave
%Mem=1900MB
#P OB98/GEN NMR

erre ene a

0 1
  C      -94.387    -165.147    -349.545
  O      -94.070    -163.848    -349.082
  H      -95.031    -165.635    -348.809
  H      -93.473    -165.737    -349.662
  H      -94.916    -165.089    -350.499
  P      -93.076    -162.988    -350.003
  C      -94.708    -161.226    -350.980
  O      -93.964    -162.414    -351.211
  C      -94.938    -160.477    -352.290
  O      -95.908    -159.423    -352.111
  C      -93.688    -159.829    -352.870
  O      -92.931    -160.764    -353.620
  C      -94.297    -158.735    -353.738
  O      -94.762    -159.272    -354.996
  C      -95.478    -158.266    -352.878
  N      -94.448    -153.329    -352.635
  C      -94.620    -154.149    -353.730
  N      -94.467    -153.580    -354.948
  N      -94.905    -155.424    -353.647
  C      -94.968    -155.873    -352.373
  C      -94.817    -155.162    -351.203
  C      -94.556    -153.742    -351.311
  O      -94.476    -152.945    -350.381
  N      -94.975    -155.968    -350.105
  C      -95.188    -157.169    -350.610
  N      -95.190    -157.163    -351.983
  O      -92.167    -164.101    -350.711
  O      -92.239    -161.989    -349.282
  H      -95.420    -159.967    -354.823
  H      -91.255    -163.763    -350.780
  H      -94.259    -152.351    -352.760
  H      -95.357    -158.065    -350.031
  H      -96.331    -157.951    -353.494
  H      -93.567    -157.963    -353.983
  H      -93.974    -152.707    -355.070
  H      -93.079    -159.367    -352.081
  H      -94.521    -154.199    -355.746
  H      -95.368    -161.189    -353.005
  H      -94.148    -160.587    -350.288
  H      -95.670    -161.486    -350.529
  P      -91.447    -160.356    -354.066
  C      -90.603    -161.188    -351.753
  O      -90.566    -160.162    -352.736
  O      -91.636    -158.864    -354.611
  O      -90.845    -161.236    -355.110
  H      -91.595    -158.860    -355.587
  H      -89.971    -160.919    -350.932
  H      -90.258    -162.106    -352.182
  H      -91.607    -161.312    -351.405

 6  7  8  9  10  11  12  13  14  15  26  29  33  34 0
 6-311+G(2d,p)
 ****
 36  38  39  40  41 0
 6-311+G(2d,p)
 ****
 1  2  3  4  5  16  17  18  19  20  21  22  23  24  25 0
 3-21G
 ****
 27  28  30  31  32  35  37  42  43  44  45  46  47 0
 3-21G
 ****
 48  49 0
 3-21G
 ****


