%nproc=1
%NoSave
%Mem=1900MB
#P OB98/GEN NMR

erre ene a

0 1
  C        5.742      90.228      42.539
  O        4.387      90.356      42.160
  H        6.309      89.729      41.749
  H        6.160      91.226      42.693
  H        5.823      89.662      43.471
  P        3.577      88.997      41.891
  C        2.519      88.580      44.228
  O        3.537      88.228      43.300
  C        1.678      87.352      44.555
  O        1.174      86.754      43.340
  C        2.438      86.244      45.275
  O        2.555      86.489      46.665
  C        1.531      85.058      44.999
  O        0.382      85.114      45.866
  C        1.113      85.316      43.545
  N        2.691      80.800      41.730
  C        1.843      81.124      42.728
  N        1.478      82.351      43.152
  C        2.089      83.304      42.431
  C        2.985      83.126      41.391
  C        3.281      81.800      41.035
  N        4.159      81.465      40.027
  N        3.430      84.345      40.916
  C        2.786      85.240      41.638
  N        1.972      84.660      42.573
  O        4.597      88.116      41.027
  O        2.251      89.152      41.227
  H        0.718      85.043      46.779
  H        4.112      87.423      40.541
  H        1.398      80.285      43.257
  H        2.874      86.312      41.521
  H        0.085      84.997      43.340
  H        2.017      84.097      45.172
  H        3.417      86.062      44.814
  H        0.814      87.680      45.148
  H        1.879      89.349      43.785
  H        4.440      80.498      39.978
  H        4.712      82.199      39.610
  H        2.982      88.979      45.135
  P        3.756      85.763      47.444
  C        5.425      87.730      47.116
  O        5.106      86.371      46.831
  O        3.718      84.274      46.863
  O        3.645      85.796      48.933
  H        4.088      83.641      47.507
  H        6.348      87.987      46.640
  H        5.520      87.860      48.174
  H        4.646      88.364      46.748

 6  7  8  9  10  11  12  13  14  15  25  28  32  33  34  35 0
 6-311+G(2d,p)
 ****
 36  39  40 0
 6-311+G(2d,p)
 ****
 1  2  3  4  5  16  17  18  19  20  21  22  23  24 0
 3-21G
 ****
 26  27  29  30  31  37  38  41  42  43  44  45  46  47 0
 3-21G
 ****
 48 0
 3-21G
 ****


