%nproc=1
%NoSave
%Mem=1900MB
#P OB98/GEN NMR

erre ene a

0 1
  C     -106.117     416.425     753.339
  O     -106.675     417.582     753.926
  H     -105.271     416.098     753.952
  H     -105.755     416.662     752.335
  H     -106.844     415.614     753.284
  P     -108.127     418.058     753.448
  C     -109.097     420.065     752.131
  O     -107.931     419.447     752.651
  C     -108.744     421.256     751.242
  O     -107.938     422.199     751.990
  C     -107.885     420.802     750.045
  O     -108.058     421.642     748.910
  C     -106.467     420.966     750.568
  O     -105.499     421.069     749.530
  C     -106.608     422.216     751.433
  N     -102.311     424.388     753.106
  C     -102.921     424.500     751.867
  N     -102.296     425.275     750.945
  N     -104.037     423.898     751.559
  C     -104.512     423.098     752.547
  C     -103.982     422.884     753.798
  C     -102.763     423.597     754.146
  O     -102.171     423.532     755.218
  N     -104.734     421.991     754.525
  C     -105.721     421.654     753.710
  N     -105.634     422.310     752.500
  O     -108.834     418.547     754.806
  O     -108.953     417.031     752.732
  H     -104.619     420.958     749.937
  H     -109.807     418.487     754.725
  H     -101.460     424.895     753.293
  H     -106.506     420.954     753.942
  H     -106.508     423.126     750.818
  H     -106.213     420.068     751.160
  H     -101.358     425.619     751.083
  H     -108.095     419.768     749.766
  H     -102.567     425.134     749.967
  H     -109.645     421.787     750.929
  H     -109.697     420.394     752.983
  H     -109.696     419.331     751.577
  P     -108.543     420.951     747.538
  C     -107.467     419.314     745.777
  O     -107.311     420.121     746.944
  O     -108.721     422.176     746.532
  O     -109.806     420.158     747.689
  H     -109.651     422.378     746.400
  H     -106.535     418.843     745.542
  H     -107.773     419.929     744.957
  H     -108.209     418.565     745.958

 6  7  8  9  10  11  12  13  14  15  26  29  33  34 0
 6-311+G(2d,p)
 ****
 36  38  39  40  41 0
 6-311+G(2d,p)
 ****
 1  2  3  4  5  16  17  18  19  20  21  22  23  24  25 0
 3-21G
 ****
 27  28  30  31  32  35  37  42  43  44  45  46  47 0
 3-21G
 ****
 48  49 0
 3-21G
 ****


