%nproc=1
%NoSave
%Mem=1900MB
#P OB98/GEN NMR

erre ene a

0 1
  C      -15.237      46.431      17.516
  O      -14.646      46.402      16.227
  P      -13.098      45.989      16.127
  C      -12.238      48.382      15.604
  O      -12.239      47.289      16.510
  C      -11.132      49.379      15.954
  O      -11.293      49.792      17.340
  C       -9.705      48.829      15.802
  O       -8.887      49.919      15.365
  C       -9.368      48.424      17.226
  O       -7.983      48.237      17.461
  C      -10.026      49.565      17.997
  N       -8.991      51.037      22.780
  C       -8.708      51.600      21.584
  N       -9.024      51.154      20.351
  C       -9.714      50.004      20.426
  C      -10.060      49.303      21.568
  C       -9.670      49.868      22.793
  N       -9.953      49.286      24.013
  N      -10.744      48.149      21.250
  C      -10.809      48.150      19.934
  N      -10.219      49.260      19.395
  O      -12.864      45.846      14.552
  O      -12.729      44.739      16.864
  H       -7.668      47.444      16.986
  H      -12.275      45.095      14.349
  H       -8.154      52.533      21.623
  H      -11.255      47.373      19.330
  H       -9.444      50.492      17.932
  H       -9.862      47.471      17.451
  H       -9.631      48.012      15.077
  H      -11.262      50.272      15.331
  H      -13.199      48.902      15.662
  H       -9.461      49.659      24.812
  H      -10.271      48.324      24.002
  H      -12.120      48.007      14.582
  P       -7.537      49.601      14.559
  C       -6.265      50.031      16.749
  O       -6.511      49.118      15.697
  O       -7.008      51.081      14.256
  O       -7.684      48.733      13.357
  H       -6.989      51.628      15.061
  H       -5.634      49.541      17.495
  H       -7.206      50.329      17.221
  H       -5.741      50.910      16.365
  H      -16.264      46.720      17.431
  H      -14.717      47.136      18.131
  H      -15.176      45.459      17.958

 3  4  5  6  7  8  9  10  11  12  22  25  29  30  31  32 0
 6-311+G(2d,p)
 ****
 33  36  37 0
 6-311+G(2d,p)
 ****
 1  2  13  14  15  16  17  18  19  20  21  23  24  26 0
 3-21G
 ****
 27  28  34  35  38  39  40  41  42  43  44  45  46  47  48 0
 3-21G
 ****


