%nproc=1
%NoSave
%Mem=1900MB
#P OB98/GEN NMR

erre ene a

0 1
  C       62.074     741.553    -195.089
  O       63.410     741.336    -194.680
  H       61.434     741.727    -194.213
  H       62.040     742.443    -195.724
  H       61.699     740.695    -195.660
  P       63.678     740.046    -193.758
  C       64.145     738.411    -195.714
  O       63.282     738.768    -194.641
  C       65.255     737.489    -195.221
  O       64.686     736.385    -194.480
  C       66.091     736.845    -196.330
  O       67.078     737.746    -196.816
  C       66.715     735.685    -195.565
  O       67.820     736.164    -194.775
  C       65.571     735.244    -194.649
  N       62.736     731.143    -193.471
  C       63.290     732.112    -192.703
  N       64.017     733.182    -193.091
  C       64.126     733.216    -194.427
  C       63.588     732.320    -195.343
  C       62.864     731.233    -194.811
  N       62.356     730.226    -195.607
  N       63.925     732.681    -196.637
  C       64.660     733.767    -196.499
  N       64.809     734.128    -195.183
  O       62.486     740.138    -192.669
  O       65.016     740.003    -193.095
  H       68.446     736.599    -195.390
  H       62.828     740.561    -191.863
  H       63.143     731.994    -191.621
  H       65.126     734.309    -197.317
  H       65.926     734.953    -193.642
  H       67.112     734.898    -196.229
  H       65.466     736.451    -197.129
  H       65.881     738.061    -194.533
  H       64.594     739.319    -196.144
  H       62.293     729.320    -195.133
  H       62.712     730.200    -196.562
  H       63.548     737.915    -196.493
  P       67.678     737.466    -198.275
  C       65.894     738.705    -199.679
  O       66.429     737.450    -199.293
  O       68.129     735.921    -198.192
  O       68.832     738.343    -198.670
  H       69.069     735.838    -198.412
  H       65.076     738.552    -200.351
  H       66.653     739.282    -200.165
  H       65.550     739.228    -198.811

 6  7  8  9  10  11  12  13  14  15  25  28  32  33  34  35 0
 6-311+G(2d,p)
 ****
 36  39  40 0
 6-311+G(2d,p)
 ****
 1  2  3  4  5  16  17  18  19  20  21  22  23  24 0
 3-21G
 ****
 26  27  29  30  31  37  38  41  42  43  44  45  46  47  48 0
 3-21G
 ****


