%nproc=1
%NoSave
%Mem=1900MB
#P OB98/GEN NMR

erre ene a

0 1
  C      -42.716    -101.634    -200.780
  O      -42.705    -102.698    -199.829
  P      -43.725    -103.916    -200.007
  C      -44.835    -103.636    -197.697
  O      -44.100    -104.499    -198.563
  C      -44.397    -103.822    -196.237
  O      -44.378    -105.234    -195.887
  C      -42.982    -103.276    -195.973
  O      -42.884    -102.764    -194.637
  C      -42.117    -104.523    -196.056
  O      -40.870    -104.342    -195.385
  C      -43.047    -105.558    -195.421
  N      -44.494    -110.455    -195.015
  C      -45.105    -109.303    -194.647
  N      -44.668    -108.036    -194.808
  C      -43.475    -108.018    -195.430
  C      -42.740    -109.106    -195.877
  C      -43.291    -110.378    -195.635
  N      -42.661    -111.545    -195.992
  N      -41.557    -108.698    -196.470
  C      -41.567    -107.381    -196.344
  N      -42.716    -106.927    -195.761
  O      -43.333    -104.947    -201.017
  O      -45.084    -103.180    -200.445
  H      -40.528    -103.465    -195.630
  H      -45.516    -103.689    -201.159
  H      -46.064    -109.423    -194.154
  H      -40.766    -106.724    -196.646
  H      -43.056    -105.480    -194.324
  H      -41.914    -104.764    -197.103
  H      -42.657    -102.501    -196.679
  H      -45.123    -103.341    -195.580
  H      -45.903    -103.843    -197.794
  H      -43.078    -112.415    -195.671
  H      -41.703    -111.507    -196.312
  H      -44.693    -102.603    -198.027
  P      -43.052    -101.168    -194.480
  C      -41.021    -100.802    -192.872
  O      -42.417    -100.800    -193.051
  O      -44.450    -100.692    -194.721
  O      -41.991    -100.615    -195.544
  H      -41.103    -100.999    -195.469
  H      -40.790    -100.404    -191.883
  H      -40.530    -100.182    -193.622
  H      -40.637    -101.828    -192.933
  H      -41.977    -100.909    -200.512
  H      -43.682    -101.173    -200.788
  H      -42.498    -102.023    -201.753

 3  4  5  6  7  8  9  10  11  12  22  25  29  30  31  32 0
 6-311+G(2d,p)
 ****
 33  36  37 0
 6-311+G(2d,p)
 ****
 1  2  13  14  15  16  17  18  19  20  21  23  24  26 0
 3-21G
 ****
 27  28  34  35  38  39  40  41  42  43  44  45  46  47  48 0
 3-21G
 ****


