%nproc=1
%NoSave
%Mem=1900MB
#P OB98/GEN NMR

erre ene a

0 1
  C     -896.360     444.170    -669.903
  O     -895.810     445.503    -669.877
  P     -896.310     446.462    -668.710
  C     -898.240     447.455    -670.134
  O     -897.060     447.713    -669.382
  C     -898.740     448.745    -670.788
  O     -899.220     449.692    -669.803
  C     -897.660     449.484    -671.576
  O     -897.420     448.841    -672.815
  C     -898.310     450.863    -671.707
  O     -899.290     450.876    -672.755
  C     -899.000     451.016    -670.339
  N     -897.790     455.769    -668.860
  C     -898.570     455.304    -669.859
  N     -898.830     454.014    -670.183
  C     -898.220     453.173    -669.355
  C     -897.380     453.491    -668.294
  C     -897.170     454.867    -668.063
  N     -896.330     455.339    -667.052
  N     -896.910     452.358    -667.666
  C     -897.440     451.358    -668.362
  N     -898.250     451.801    -669.393
  O     -894.960     447.098    -668.128
  O     -897.080     445.753    -667.632
  H     -900.000     450.235    -672.514
  H     -894.750     446.720    -667.260
  H     -899.050     456.062    -670.473
  H     -897.270     450.302    -668.165
  H     -899.990     451.487    -670.425
  H     -897.590     451.657    -671.924
  H     -896.740     449.545    -670.992
  H     -899.590     448.490    -671.454
  H     -899.020     447.028    -669.495
  H     -896.180     456.332    -666.999
  H     -895.820     454.661    -666.508
  H     -898.010     446.687    -670.896
  P     -895.950     448.222    -673.048
  C     -895.300     450.289    -674.441
  O     -895.480     448.886    -674.443
  O     -896.300     446.719    -673.472
  O     -895.000     448.394    -671.898
  H     -897.020     446.673    -674.126
  H     -894.950     450.594    -675.426
  H     -894.550     450.576    -673.697
  H     -896.260     450.788    -674.217
  H     -895.947     443.630    -670.729
  H     -897.423     444.225    -670.009
  H     -896.118     443.666    -668.990

 3  4  5  6  7  8  9  10  11  12  22  25  29  30  31  32 0
 6-311+G(2d,p)
 ****
 33  36  37 0
 6-311+G(2d,p)
 ****
 1  2  13  14  15  16  17  18  19  20  21  23  24  26 0
 3-21G
 ****
 27  28  34  35  38  39  40  41  42  43  44  45  46  47  48 0
 3-21G
 ****


