%nproc=1
%NoSave
%Mem=1900MB
#P OB98/GEN NMR

erre ene a

0 1
  C      101.210    -209.402    -221.137
  O      101.758    -209.455    -219.835
  H      100.990    -210.420    -221.463
  H      101.926    -208.958    -221.835
  H      100.281    -208.824    -221.135
  P      102.234    -208.090    -219.141
  C       99.986    -207.212    -218.216
  O      101.234    -207.822    -217.910
  C       98.872    -207.817    -217.351
  O       98.640    -209.172    -217.816
  C       99.253    -207.873    -215.862
  O       98.272    -207.273    -215.014
  C       99.584    -209.345    -215.644
  O       99.408    -209.791    -214.315
  C       98.710    -210.057    -216.681
  N       99.219    -211.368    -217.082
  C       98.643    -212.491    -216.487
  O       97.737    -212.460    -215.658
  N       99.158    -213.698    -216.882
  C      100.167    -213.892    -217.784
  O      100.580    -214.999    -218.101
  C      100.752    -212.670    -218.356
  C      100.260    -211.484    -217.986
  O      102.414    -206.929    -220.059
  O      103.604    -208.483    -218.411
  H       98.444    -209.778    -214.130
  H      104.357    -208.120    -218.916
  H       98.741    -214.519    -216.471
  H      101.564    -212.785    -219.063
  H      100.666    -210.560    -218.393
  H       97.698    -210.200    -216.295
  H      100.640    -209.505    -215.899
  H      100.151    -207.274    -215.668
  H       97.952    -207.247    -217.512
  H       99.779    -207.388    -219.280
  H      100.049    -206.133    -218.040
  P       97.980    -205.709    -214.915
  C       96.744    -205.346    -217.208
  O       96.684    -205.373    -215.788
  O       99.161    -204.812    -215.090
  O       97.450    -205.518    -213.401
  H       97.740    -204.624    -213.118
  H       95.779    -205.103    -217.601
  H       97.046    -206.306    -217.571
  H       97.453    -204.608    -217.521

 6  7  8  9  10  11  12  13  14  15  16  26  31  32  33  34  35 0
 6-311+G(2d,p)
 ****
 36  37 0
 6-311+G(2d,p)
 ****
 1  2  3  4  5  17  18  19  20  21  22  23  24  25 0
 3-21G
 ****
 27  28  29  30  38  39  40  41  42  43  44  45 0
 3-21G
 ****


