%nproc=1
%NoSave
%Mem=1900MB
#P OB98/GEN NMR

erre ene a

0 1
  C     -198.713    -499.517     127.974
  O     -199.757    -500.206     127.309
  H     -197.775    -500.052     127.803
  H     -198.914    -499.487     129.049
  H     -198.618    -498.500     127.585
  P     -201.172    -499.459     127.242
  C     -201.383    -499.701     124.639
  O     -201.926    -499.984     125.920
  C     -202.446    -499.902     123.561
  O     -202.795    -501.296     123.444
  C     -203.774    -499.224     123.858
  O     -203.710    -497.823     123.709
  C     -204.674    -499.904     122.836
  O     -204.593    -499.271     121.553
  C     -204.083    -501.335     122.780
  N     -204.979    -502.314     123.368
  C     -206.035    -502.729     122.548
  O     -206.135    -502.282     121.401
  N     -206.957    -503.605     123.053
  C     -206.853    -504.009     124.281
  N     -207.826    -504.850     124.734
  C     -205.760    -503.592     125.181
  C     -204.867    -502.749     124.667
  O     -200.755    -497.963     126.853
  O     -201.994    -499.561     128.482
  H     -204.987    -498.381     121.660
  H     -200.141    -497.911     126.102
  H     -205.714    -503.967     126.198
  H     -204.030    -502.396     125.258
  H     -203.889    -501.629     121.740
  H     -205.722    -499.875     123.140
  H     -204.123    -499.500     124.862
  H     -202.028    -499.565     122.603
  H     -208.582    -505.065     124.101
  H     -200.512    -500.337     124.439
  H     -207.891    -505.165     125.691
  H     -201.038    -498.663     124.645
  P     -204.465    -496.840     124.727
  C     -202.936    -494.853     124.134
  O     -204.272    -495.349     124.160
  O     -204.096    -497.006     126.162
  O     -206.011    -497.116     124.414
  H     -206.283    -496.934     123.499
  H     -202.932    -493.858     123.740
  H     -202.333    -495.484     123.515
  H     -202.539    -494.844     125.128

 6  7  8  9  10  11  12  13  14  15  16  26  30  31  32  33  35 0
 6-311+G(2d,p)
 ****
 37  38 0
 6-311+G(2d,p)
 ****
 1  2  3  4  5  17  18  19  20  21  22  23  24  25 0
 3-21G
 ****
 27  28  29  34  36  39  40  41  42  43  44  45  46 0
 3-21G
 ****


