%nproc=1
%NoSave
%Mem=1900MB
#P OB98/GEN NMR

erre ene a

0 1
  C      -31.246    -118.275     256.912
  O      -32.386    -117.460     256.716
  H      -31.455    -119.273     256.515
  H      -31.023    -118.357     257.980
  H      -30.386    -117.858     256.381
  P      -32.271    -115.942     257.218
  C      -32.088    -113.740     255.834
  O      -31.712    -115.101     255.970
  C      -31.247    -113.061     254.748
  O      -29.872    -112.945     255.224
  C      -31.190    -113.843     253.424
  O      -31.001    -112.893     252.359
  C      -29.920    -114.663     253.604
  O      -29.495    -115.214     252.378
  C      -29.029    -113.610     254.255
  N      -24.106    -114.864     253.653
  C      -24.990    -114.262     252.825
  N      -26.281    -113.951     253.060
  C      -26.637    -114.300     254.309
  C      -25.844    -114.907     255.271
  C      -24.517    -115.198     254.900
  N      -23.617    -115.813     255.738
  N      -26.561    -115.113     256.435
  C      -27.764    -114.638     256.178
  N      -27.856    -114.146     254.906
  O      -31.036    -115.983     258.234
  O      -33.501    -115.381     257.852
  H      -30.238    -115.663     251.923
  H      -31.361    -116.089     259.149
  H      -24.611    -114.005     251.840
  H      -28.599    -114.633     256.869
  H      -28.695    -112.856     253.536
  H      -30.093    -115.502     254.286
  H      -32.086    -114.434     253.232
  H      -31.616    -112.039     254.595
  H      -31.930    -113.239     256.795
  H      -33.146    -113.678     255.568
  H      -22.691    -116.000     255.393
  H      -23.914    -116.086     256.664
  P      -32.278    -112.410     251.509
  C      -34.073    -110.513     251.734
  O      -33.069    -111.303     252.361
  O      -33.256    -113.674     251.627
  O      -32.016    -112.074     250.078
  H      -33.835    -113.713     250.842
  H      -34.490    -109.834     252.448
  H      -34.844    -111.151     251.356
  H      -33.640    -109.960     250.927

 6  7  8  9  10  11  12  13  14  15  25  28  32  33  34  35 0
 6-311+G(2d,p)
 ****
 36  37  40 0
 6-311+G(2d,p)
 ****
 1  2  3  4  5  16  17  18  19  20  21  22  23  24 0
 3-21G
 ****
 26  27  29  30  31  38  39 41  42  43  44  45  46  47  48 0
 3-21G
 ****


