%nproc=1
%NoSave
%Mem=1900MB
#P OB98/GEN NMR

erre ene a

0 1
  C      909.205    -420.867     179.944
  O      907.788    -420.896     179.958
  H      909.570    -421.890     179.848
  H      909.576    -420.440     180.881
  H      909.560    -420.276     179.094
  P      907.042    -419.476     180.077
  C      906.419    -419.487     177.542
  O      907.088    -418.826     178.613
  C      906.653    -418.738     176.223
  O      908.078    -418.814     175.891
  C      905.890    -419.334     175.027
  O      905.628    -418.274     174.100
  C      906.926    -420.281     174.434
  O      906.555    -420.694     173.137
  C      908.176    -419.410     174.575
  N      911.706    -421.124     171.290
  C      910.605    -420.351     171.110
  N      909.724    -419.929     172.037
  C      910.067    -420.360     173.259
  C      911.163    -421.135     173.607
  C      912.002    -421.521     172.540
  N      913.121    -422.317     172.728
  N      911.194    -421.375     174.964
  C      910.128    -420.743     175.443
  N      909.411    -420.130     174.451
  O      908.082    -418.589     180.917
  O      905.692    -419.508     180.715
  H      907.278    -421.229     172.728
  H      907.845    -418.610     181.865
  H      910.417    -420.043     170.088
  H      909.827    -420.720     176.481
  H      908.186    -418.586     173.837
  H      907.018    -421.184     175.039
  H      904.950    -419.810     175.311
  H      906.416    -417.676     176.369
  H      905.352    -419.515     177.765
  H      906.802    -420.514     177.451
  H      913.665    -422.569     171.916
  H      913.348    -422.646     173.651
  P      904.413    -417.254     174.396
  C      905.590    -414.956     174.815
  O      904.933    -416.085     175.364
  O      903.485    -418.126     175.393
  O      903.629    -416.817     173.195
  H      902.559    -417.843     175.303
  H      905.864    -414.285     175.602
  H      904.933    -414.457     174.134
  H      906.469    -415.273     174.294

 6  7  8  9  10  11  12  13  14  15  25  28  32  33  34  35 0
 6-311+G(2d,p)
 ****
 36  37  40 0
 6-311+G(2d,p)
 ****
 1  2  3  4  5  16  17  18  19  20  21  22  23  24 0
 3-21G
 ****
 26  27  29  30  31  38  39 41  42  43  44  45  46  47  48 0
 3-21G
 ****


