%nproc=1
%NoSave
%Mem=1900MB
#P OB98/GEN NMR

erre ene a

0 1
  C      -82.776     106.580      55.058
  O      -83.799     107.525      54.832
  H      -82.383     106.251      54.093
  H      -83.177     105.713      55.588
  H      -81.964     107.029      55.636
  P      -84.505     108.166      56.125
  C      -86.401     107.366      57.718
  O      -85.616     107.088      56.567
  C      -86.667     106.079      58.505
  O      -87.511     105.206      57.717
  C      -85.393     105.309      58.854
  O      -85.478     104.842      60.202
  C      -85.385     104.144      57.881
  O      -84.663     103.022      58.386
  C      -86.882     103.913      57.648
  N      -87.138     103.266      56.362
  C      -86.987     101.877      56.315
  O      -86.640     101.257      57.322
  N      -87.178     101.230      55.121
  C      -87.437     101.915      54.052
  N      -87.594     101.218      52.895
  C      -87.558     103.386      54.045
  C      -87.404     103.989      55.222
  O      -85.365     109.363      55.508
  O      -83.576     108.584      57.215
  H      -84.987     102.838      59.295
  H      -85.686     109.977      56.211
  H      -87.759     103.914      53.126
  H      -87.474     105.068      55.312
  H      -87.306     103.288      58.445
  H      -84.905     104.456      56.945
  H      -84.490     105.909      58.746
  H      -87.236     106.335      59.406
  H      -87.493     100.212      52.936
  H      -87.351     107.806      57.403
  H      -87.767     101.650      51.999
  H      -85.867     108.079      58.354
  P      -84.327     105.358      61.197
  C      -82.029     104.470      62.004
  O      -83.084     104.350      61.062
  O      -84.921     105.045      62.648
  O      -83.986     106.800      61.019
  H      -85.304     105.851      63.041
  H      -81.277     103.739      61.792
  H      -82.412     104.312      62.990
  H      -81.603     105.450      61.940

 6  7  8  9  10  11  12  13  14  15  16  26  30  31  32  33  35 0
 6-311+G(2d,p)
 ****
 37  38 0
 6-311+G(2d,p)
 ****
 1  2  3  4  5  17  18  19  20  21  22  23  24  25 0
 3-21G
 ****
 27  28  29  34  36  39  40  41  42  43  44  45  46 0
 3-21G
 ****


