%nproc=1
%NoSave
%Mem=1900MB
#P OB98/GEN NMR

erre ene a

0 1
  C      -95.986     -37.124    -203.664
  O      -95.647     -36.454    -202.467
  H      -95.604     -38.149    -203.610
  H      -95.526     -36.626    -204.520
  H      -97.071     -37.164    -203.794
  P      -96.234     -34.984    -202.215
  C      -94.046     -33.791    -202.875
  O      -95.422     -33.986    -203.174
  C      -93.246     -33.641    -204.166
  O      -93.775     -34.532    -205.178
  C      -93.318     -32.244    -204.778
  O      -92.508     -31.328    -204.072
  C      -92.879     -32.534    -206.204
  O      -91.449     -32.601    -206.302
  C      -93.507     -33.921    -206.462
  N      -94.729     -33.831    -207.264
  C      -94.602     -33.230    -208.513
  O      -93.533     -32.806    -208.958
  N      -95.760     -33.084    -209.226
  C      -97.022     -33.340    -208.757
  O      -98.038     -32.962    -209.327
  C      -97.093     -34.026    -207.458
  C      -95.961     -34.225    -206.775
  O      -96.323     -34.559    -200.786
  O      -97.686     -35.036    -202.896
  H      -98.363     -35.138    -202.203
  H      -91.128     -31.689    -206.151
  H      -95.684     -32.613    -210.118
  H      -98.067     -34.312    -207.085
  H      -95.989     -34.701    -205.798
  H      -92.795     -34.574    -206.984
  H      -93.224     -31.762    -206.895
  H      -94.361     -31.899    -204.791
  H      -92.205     -33.924    -203.969
  H      -93.678     -34.660    -202.319
  H      -93.942     -32.896    -202.250
  P      -93.180     -30.238    -203.103
  C      -92.268     -28.346    -204.588
  O      -93.416     -28.894    -203.944
  O      -92.487     -30.042    -201.795
  O      -94.670     -30.783    -202.881
  H      -94.864     -30.793    -201.923
  H      -92.545     -27.457    -205.115
  H      -91.871     -29.061    -205.278
  H      -91.526     -28.109    -203.854

 6  7  8  9  10  11  12  13  14  15  16  27  31  32  33  34  35 0
 6-311+G(2d,p)
 ****
 36  37 0
 6-311+G(2d,p)
 ****
 1  2  3  4  5  17  18  19  20  21  22  23  24  25 0
 3-21G
 ****
 26  28  29  30  38  39  40  41  42  43  44  45 0
 3-21G
 ****


