%nproc=1
%NoSave
%Mem=1900MB
#P OB98/GEN NMR

erre ene a

0 1
  C     -521.968     843.589    -615.395
  O     -521.715     843.739    -614.012
  P     -522.814     843.323    -612.909
  C     -522.568     845.534    -611.562
  O     -522.392     844.127    -611.577
  C     -521.524     846.192    -610.651
  O     -521.927     845.967    -609.265
  C     -520.092     845.667    -610.812
  O     -519.202     846.763    -610.609
  C     -519.986     844.649    -609.685
  O     -518.632     844.396    -609.335
  C     -520.807     845.335    -608.592
  N     -521.271     844.396    -607.568
  C     -520.331     843.895    -606.674
  O     -519.141     844.221    -606.767
  N     -520.734     843.044    -605.695
  C     -521.981     842.653    -605.651
  N     -522.356     841.851    -604.608
  C     -522.996     843.077    -606.637
  C     -522.566     843.967    -607.548
  O     -523.005     841.862    -612.732
  O     -524.128     844.122    -613.359
  H     -518.227     845.238    -609.048
  H     -524.666     843.636    -614.031
  H     -524.011     842.696    -606.579
  H     -523.260     844.346    -608.290
  H     -520.223     846.154    -608.131
  H     -520.448     843.701    -609.997
  H     -519.925     845.240    -611.808
  H     -521.555     847.286    -610.813
  H     -521.689     841.732    -603.859
  H     -523.571     845.761    -611.189
  H     -523.337     841.767    -604.336
  H     -522.505     845.941    -612.586
  P     -518.394     847.352    -611.869
  C     -516.060     846.465    -611.196
  O     -516.863     847.576    -611.419
  O     -518.978     848.861    -611.924
  O     -518.625     846.684    -613.177
  H     -518.886     849.197    -612.831
  H     -515.079     846.801    -610.896
  H     -515.963     845.854    -612.087
  H     -516.475     845.852    -610.379
  H     -521.117     843.921    -615.951
  H     -522.822     844.174    -615.667
  H     -522.157     842.559    -615.613

 3  4  5  6  7  8  9  10  11  12  13  23  27  28  29  30  32 0
 6-311+G(2d,p)
 ****
 34  35 0
 6-311+G(2d,p)
 ****
 1  2  14  15  16  17  18  19  20  21  22  24  25  26 0
 3-21G
 ****
 31  33  36  37  38  39  40  41  42  43  44  45  46 0
 3-21G
 ****


