%nproc=1
%NoSave
%Mem=1900MB
#P OB98/GEN NMR

erre ene a

0 1
  C      -26.816     -21.703      35.127
  O      -27.218     -22.894      35.811
  P      -28.738     -22.973      36.324
  C      -29.572     -24.513      34.383
  O      -29.317     -24.364      35.768
  C      -29.888     -25.973      34.040
  O      -28.707     -26.800      34.269
  C      -31.043     -26.577      34.847
  O      -31.760     -27.447      33.960
  C      -30.329     -27.386      35.914
  O      -31.157     -28.406      36.454
  C      -29.116     -27.888      35.124
  N      -28.024     -28.334      35.985
  C      -27.444     -29.559      35.682
  O      -27.861     -30.293      34.788
  N      -26.393     -29.936      36.474
  C      -25.930     -29.258      37.565
  O      -24.984     -29.642      38.241
  C      -26.658     -28.025      37.904
  C      -27.656     -27.629      37.112
  O      -29.436     -21.860      35.416
  O      -28.867     -22.767      37.796
  H      -29.084     -21.821      34.511
  H      -32.053     -28.043      36.605
  H      -25.937     -30.807      36.251
  H      -26.358     -27.490      38.796
  H      -28.225     -26.739      37.345
  H      -29.404     -28.722      34.471
  H      -30.012     -26.728      36.731
  H      -31.720     -25.821      35.252
  H      -30.116     -26.027      32.968
  H      -28.695     -24.199      33.809
  H      -30.395     -23.852      34.095
  P      -33.344     -27.628      34.186
  C      -34.080     -25.800      32.464
  O      -34.068     -27.159      32.838
  O      -33.623     -26.406      35.187
  O      -33.755     -28.945      34.753
  H      -33.217     -25.574      34.895
  H      -34.403     -25.724      31.423
  H      -33.084     -25.357      32.550
  H      -34.784     -25.248      33.092
  H      -25.788     -21.785      34.843
  H      -26.942     -20.860      35.774
  H      -27.418     -21.574      34.252

 3  4  5  6  7  8  9  10  11  12  13  24  28  29  30  31  32 0
 6-311+G(2d,p)
 ****
 33  34 0
 6-311+G(2d,p)
 ****
 1  2  14  15  16  17  18  19  20  21  22  23  25  26  27 0
 3-21G
 ****
 35  36  37  38  39  40  41  42  43  44  45 0
 3-21G
 ****


