%nproc=1
%NoSave
%Mem=1900MB
#P OB98/GEN NMR

erre ene a

0 1
  C      320.625    -570.823    -236.814
  O      319.713    -571.664    -236.138
  H      321.308    -570.376    -236.081
  H      320.093    -570.017    -237.332
  H      321.214    -571.401    -237.536
  P      318.559    -572.339    -237.020
  C      318.814    -574.175    -235.199
  O      317.974    -573.560    -236.160
  C      318.085    -575.364    -234.567
  O      317.617    -576.261    -235.612
  C      318.958    -576.220    -233.666
  O      319.146    -575.649    -232.377
  C      318.156    -577.505    -233.617
  O      317.122    -577.458    -232.623
  C      317.564    -577.579    -235.038
  N      318.257    -578.566    -235.867
  C      317.645    -579.817    -235.953
  O      316.589    -580.096    -235.376
  N      318.307    -580.759    -236.692
  C      319.517    -580.587    -237.300
  O      320.083    -581.484    -237.896
  C      320.115    -579.250    -237.168
  C      319.474    -578.317    -236.461
  O      319.364    -573.052    -238.200
  O      317.526    -571.388    -237.542
  H      319.249    -572.550    -239.026
  H      316.802    -578.373    -232.543
  H      317.875    -581.669    -236.759
  H      321.084    -579.078    -237.632
  H      319.902    -577.326    -236.336
  H      316.497    -577.857    -234.991
  H      318.800    -578.358    -233.379
  H      319.931    -576.422    -234.144
  H      317.209    -574.986    -234.022
  H      319.055    -573.448    -234.406
  H      319.737    -574.490    -235.683
  P      320.646    -575.545    -231.811
  C      319.757    -573.974    -229.890
  O      320.506    -575.121    -230.268
  O      321.148    -574.218    -232.557
  O      321.460    -576.759    -232.085
  H      320.403    -573.616    -232.759
  H      319.786    -573.864    -228.826
  H      318.742    -574.089    -230.210
  H      320.179    -573.105    -230.350

 6  7  8  9  10  11  12  13  14  15  16  27  31  32  33  34  35 0
 6-311+G(2d,p)
 ****
 36  37 0
 6-311+G(2d,p)
 ****
 1  2  3  4  5  17  18  19  20  21  22  23  24  25 0
 3-21G
 ****
 26  28  29  30  38  39  40  41  42  43  44  45 0
 3-21G
 ****


