%nproc=1
%NoSave
%Mem=1900MB
#P OB98/GEN NMR

erre ene a

0 1
  C      369.753     207.825     -60.542
  O      368.863     208.921     -60.401
  P      369.456     210.396     -60.657
  C      370.880     210.520     -58.480
  O      369.762     211.020     -59.209
  C      371.331     211.545     -57.447
  O      371.711     212.780     -58.087
  C      370.251     211.936     -56.440
  O      370.126     210.992     -55.388
  C      370.818     213.247     -55.901
  O      371.832     212.982     -54.918
  C      371.436     213.866     -57.165
  N      371.044     218.648     -58.774
  C      372.153     217.950     -58.341
  N      373.313     218.636     -58.275
  N      372.135     216.682     -58.009
  C      370.903     216.117     -58.124
  C      369.728     216.704     -58.541
  C      369.767     218.103     -58.894
  O      368.808     218.798     -59.234
  N      368.692     215.815     -58.531
  C      369.232     214.686     -58.109
  N      370.557     214.833     -57.804
  O      368.180     211.223     -61.151
  O      370.568     210.451     -61.641
  H      371.398     212.477     -54.203
  H      368.459     212.041     -61.592
  H      371.109     219.622     -59.022
  H      368.703     213.748     -57.982
  H      372.388     214.361     -56.944
  H      370.055     213.862     -55.419
  H      373.382     219.627     -58.454
  H      369.297     212.128     -56.936
  H      374.132     218.175     -57.900
  H      372.205     211.135     -56.929
  H      371.694     210.310     -59.174
  H      370.593     209.585     -57.989
  P      368.867     209.989     -55.466
  C      367.337     212.067     -55.163
  O      367.670     210.760     -54.738
  O      369.267     208.821     -54.438
  O      368.577     209.465     -56.835
  H      368.823     207.997     -54.683
  H      366.358     212.324     -54.753
  H      367.284     212.114     -56.259
  H      368.071     212.784     -54.791
  H      369.230     206.913     -60.345
  H      370.561     207.930     -59.848
  H      370.140     207.806     -61.539

 3  4  5  6  7  8  9  10  11  12  23  26  30  31 0
 6-311+G(2d,p)
 ****
 33  35  36  37  38 0
 6-311+G(2d,p)
 ****
 1  2  13  14  15  16  17  18  19  20  21  22  24  25 0
 3-21G
 ****
 27  28  29  32  34  39  40  41  42  43  44  45  46  47  48  49 0
 3-21G
 ****


