%nproc=1
%NoSave
%Mem=1900MB
#P OB98/GEN NMR

erre ene a

0 1
  C      374.473     290.998     374.720
  O      373.436     290.551     375.577
  H      375.031     290.130     374.371
  H      375.156     291.653     375.268
  H      374.061     291.524     373.856
  P      372.395     291.631     376.157
  C      371.564     290.031     377.989
  O      371.206     290.795     376.848
  C      370.583     288.882     378.187
  O      369.271     289.425     378.481
  C      370.435     287.965     376.966
  O      370.294     286.615     377.421
  C      369.154     288.429     376.314
  O      368.522     287.400     375.561
  C      368.335     288.875     377.530
  N      363.413     289.549     376.624
  C      364.093     288.431     377.052
  N      363.356     287.305     377.242
  N      365.377     288.403     377.271
  C      365.985     289.596     377.053
  C      365.417     290.774     376.633
  C      364.002     290.790     376.379
  O      363.339     291.748     375.989
  N      366.371     291.765     376.497
  C      367.500     291.174     376.845
  N      367.329     289.861     377.176
  O      371.935     292.666     375.182
  O      373.165     292.280     377.397
  H      367.654     287.744     375.267
  H      373.545     293.143     377.153
  H      362.417     289.511     376.465
  H      368.479     291.659     376.850
  H      367.805     288.042     378.015
  H      369.352     289.273     375.646
  H      362.361     287.260     377.111
  H      371.295     288.029     376.280
  H      363.843     286.476     377.578
  H      370.891     288.301     379.076
  H      371.541     290.690     378.868
  H      372.583     289.633     377.864
  P      371.607     285.768     377.766
  C      370.669     283.442     377.165
  O      371.148     284.287     378.203
  O      372.583     286.434     378.691
  O      372.266     285.513     376.322
  H      373.232     285.444     376.427
  H      370.397     282.492     377.575
  H      371.437     283.307     376.432
  H      369.813     283.891     376.706

 6  7  8  9  10  11  12  13  14  15  26  29  33  34 0
 6-311+G(2d,p)
 ****
 36  38  39  40  41 0
 6-311+G(2d,p)
 ****
 1  2  3  4  5  16  17  18  19  20  21  22  23  24  25 0
 3-21G
 ****
 27  28  30  31  32  35  37  42  43  44  45  46  47 0
 3-21G
 ****
 48  49 0
 3-21G
 ****


