%nproc=1
%NoSave
%Mem=1900MB
#P OB98/GEN NMR

erre ene a

0 1
  C       84.770    -149.648     489.012
  O       85.519    -150.818     488.751
  H       85.258    -148.781     488.562
  H       83.776    -149.760     488.572
  H       84.664    -149.500     490.090
  P       87.032    -150.843     489.285
  C       86.533    -152.527     491.192
  O       86.973    -151.221     490.846
  C       86.076    -152.556     492.648
  O       84.954    -151.646     492.793
  C       85.634    -153.940     493.155
  O       86.415    -154.322     494.292
  C       84.194    -153.738     493.606
  O       83.881    -154.427     494.815
  C       84.084    -152.227     493.771
  N       79.398    -152.310     495.777
  C       80.615    -152.499     496.338
  N       81.831    -152.357     495.773
  C       81.716    -151.953     494.493
  C       80.550    -151.699     493.793
  C       79.345    -151.911     494.484
  N       78.104    -151.775     493.895
  N       80.832    -151.313     492.496
  C       82.144    -151.374     492.403
  N       82.719    -151.776     493.580
  O       87.443    -149.295     489.290
  O       87.976    -151.662     488.473
  H       82.977    -154.155     495.065
  H       88.315    -149.186     488.863
  H       80.608    -152.809     497.378
  H       82.720    -151.187     491.508
  H       84.421    -151.896     494.763
  H       83.522    -154.100     492.817
  H       85.702    -154.715     492.384
  H       86.889    -152.167     493.271
  H       87.356    -153.238     491.065
  H       77.299    -152.059     494.430
  H       78.060    -151.586     492.905
  H       85.717    -152.818     490.520
  P       87.444    -155.540     494.085
  C       89.652    -154.179     494.306
  O       88.789    -154.927     493.458
  O       86.802    -156.346     492.858
  O       87.619    -156.400     495.291
  H       87.065    -157.286     492.901
  H       90.498    -153.841     493.745
  H       89.984    -154.798     495.113
  H       89.123    -153.335     494.698

 6  7  8  9  10  11  12  13  14  15  25  28  32  33  34  35 0
 6-311+G(2d,p)
 ****
 36  39  40 0
 6-311+G(2d,p)
 ****
 1  2  3  4  5  16  17  18  19  20  21  22  23  24 0
 3-21G
 ****
 26  27  29  30  31  37  38  41  42  43  44  45  46  47  48 0
 3-21G
 ****


