%nproc=1
%NoSave
%Mem=1900MB
#P OB98/GEN NMR

erre ene a

0 1
  C      325.672     325.314    -402.585
  O      325.732     324.020    -401.972
  P      324.469     323.057    -402.246
  C      325.863     321.134    -403.303
  O      325.005     321.535    -402.237
  C      326.080     319.613    -403.301
  O      326.950     319.208    -402.206
  C      324.780     318.806    -403.158
  O      324.945     317.609    -403.939
  C      324.768     318.434    -401.683
  O      323.888     317.341    -401.415
  C      326.249     318.165    -401.473
  N      326.435     315.367    -397.261
  C      325.873     315.099    -398.484
  N      325.309     313.868    -398.638
  N      325.848     315.936    -399.494
  C      326.479     317.111    -399.213
  C      327.099     317.499    -398.042
  C      327.080     316.556    -396.936
  O      327.574     316.751    -395.826
  N      327.656     318.751    -398.159
  C      327.305     319.145    -399.379
  N      326.655     318.161    -400.082
  O      324.125     323.336    -403.789
  O      323.302     323.315    -401.359
  H      324.268     316.561    -401.867
  H      323.373     323.944    -403.858
  H      326.407     314.685    -396.523
  H      327.539     320.106    -399.815
  H      326.563     317.189    -401.883
  H      324.440     319.302    -401.076
  H      325.330     313.158    -397.922
  H      323.875     319.341    -403.472
  H      324.921     313.629    -399.542
  H      326.589     319.340    -404.236
  H      326.837     321.622    -403.202
  H      325.447     321.475    -404.252
  P      324.484     317.646    -405.470
  C      326.453     316.336    -406.545
  O      325.088     316.338    -406.180
  O      325.370     318.845    -406.080
  O      323.027     317.902    -405.686
  H      324.834     319.356    -406.721
  H      326.807     315.307    -406.558
  H      327.061     316.907    -405.839
  H      326.565     316.769    -407.545
  H      326.555     325.866    -402.339
  H      324.811     325.839    -402.226
  H      325.605     325.203    -403.647

 3  4  5  6  7  8  9  10  11  12  23  26  30  31 0
 6-311+G(2d,p)
 ****
 33  35  36  37  38 0
 6-311+G(2d,p)
 ****
 1  2  13  14  15  16  17  18  19  20  21  22  24  25 0
 3-21G
 ****
 27  28  29  32  34  39  40  41  42  43  44  45  46  47  48  49 0
 3-21G
 ****


