%nproc=1
%NoSave
%Mem=1900MB
#P OB98/GEN NMR

erre ene a

0 1
  C     -542.924     805.155    -233.514
  O     -542.457     806.200    -234.400
  P     -540.989     806.742    -234.179
  C     -541.471     808.623    -232.438
  O     -540.857     807.363    -232.702
  C     -541.129     809.097    -231.031
  O     -539.726     808.963    -230.741
  C     -541.446     810.570    -230.788
  O     -542.826     810.747    -230.473
  C     -540.605     810.856    -229.562
  O     -541.258     810.363    -228.378
  C     -539.339     810.023    -229.832
  N     -536.603     814.370    -229.612
  C     -537.639     813.899    -228.866
  N     -538.322     812.753    -229.009
  C     -537.834     812.029    -230.037
  C     -536.781     812.364    -230.864
  C     -536.165     813.603    -230.648
  N     -535.112     814.060    -231.412
  N     -536.584     811.378    -231.816
  C     -537.482     810.447    -231.527
  N     -538.266     810.802    -230.465
  O     -540.932     808.036    -235.123
  O     -539.908     805.757    -234.551
  H     -541.384     809.387    -228.503
  H     -540.032     808.141    -235.507
  H     -537.952     814.553    -228.046
  H     -537.595     809.509    -232.044
  H     -538.922     809.562    -228.928
  H     -540.425     811.922    -229.411
  H     -541.127     811.190    -231.632
  H     -541.682     808.466    -230.315
  H     -542.555     808.532    -232.563
  H     -534.687     814.949    -231.172
  H     -534.762     813.490    -232.177
  H     -541.133     809.346    -233.182
  P     -543.737     811.474    -231.597
  C     -543.261     813.648    -230.277
  O     -543.351     813.019    -231.531
  O     -545.210     811.400    -230.956
  O     -543.676     810.830    -232.940
  H     -545.889     811.345    -231.664
  H     -542.703     814.586    -230.371
  H     -542.746     813.009    -229.546
  H     -544.291     813.881    -229.900
  H     -543.926     804.887    -233.776
  H     -542.902     805.507    -232.504
  H     -542.289     804.299    -233.607

 3  4  5  6  7  8  9  10  11  12  22  25  29  30  31  32 0
 6-311+G(2d,p)
 ****
 33  36  37 0
 6-311+G(2d,p)
 ****
 1  2  13  14  15  16  17  18  19  20  21  23  24  26 0
 3-21G
 ****
 27  28  34  35  38  39  40  41  42  43  44  45  46  47  48 0
 3-21G
 ****


