%nproc=1
%NoSave
%Mem=1900MB
#P OB98/GEN NMR

erre ene a

0 1
  C     -338.784     417.263      45.290
  O     -338.467     417.124      46.662
  H     -339.868     417.242      45.153
  H     -338.399     418.218      44.931
  H     -338.321     416.456      44.713
  P     -338.978     415.794      47.395
  C     -336.522     415.056      47.790
  O     -337.794     415.309      48.371
  C     -335.419     415.355      48.801
  O     -335.165     416.780      48.793
  C     -335.739     414.934      50.245
  O     -334.753     414.017      50.730
  C     -335.640     416.224      51.048
  O     -335.012     416.049      52.316
  C     -334.825     417.142      50.139
  N     -333.121     421.391      52.373
  C     -332.474     420.285      51.950
  N     -332.971     419.232      51.266
  C     -334.279     419.414      51.001
  C     -335.065     420.500      51.341
  C     -334.440     421.520      52.079
  N     -335.109     422.624      52.560
  N     -336.364     420.323      50.899
  C     -336.365     419.128      50.335
  N     -335.136     418.535      50.393
  O     -338.968     414.701      46.221
  O     -340.321     415.904      48.035
  H     -334.123     415.680      52.140
  H     -339.810     414.210      46.223
  H     -331.420     420.233      52.204
  H     -337.236     418.633      49.923
  H     -333.749     416.996      50.270
  H     -336.650     416.622      51.213
  H     -336.737     414.488      50.340
  H     -334.499     414.863      48.459
  H     -336.385     415.698      46.912
  H     -334.613     423.242      53.181
  H     -336.114     422.664      52.439
  H     -336.482     414.012      47.466
  P     -335.156     413.137      52.016
  C     -335.118     410.821      50.821
  O     -334.529     411.672      51.795
  O     -336.723     412.902      51.808
  O     -334.848     413.787      53.321
  H     -337.156     412.762      52.673
  H     -334.591     409.890      50.795
  H     -335.064     411.288      49.860
  H     -336.142     410.644      51.075

 6  7  8  9  10  11  12  13  14  15  25  28  32  33  34  35 0
 6-311+G(2d,p)
 ****
 36  39  40 0
 6-311+G(2d,p)
 ****
 1  2  3  4  5  16  17  18  19  20  21  22  23  24 0
 3-21G
 ****
 26  27  29  30  31  37  38  41  42  43  44  45  46  47  48 0
 3-21G
 ****


