%nproc=1
%NoSave
%Mem=1900MB
#P OB98/GEN NMR

erre ene a

0 1
  C     -179.267      -4.477     -57.787
  O     -179.760      -5.678     -58.342
  H     -179.306      -3.694     -58.549
  H     -178.226      -4.617     -57.485
  H     -179.866      -4.166     -56.928
  P     -180.165      -6.846     -57.321
  C     -177.789      -7.641     -56.644
  O     -178.978      -7.928     -57.366
  C     -176.797      -8.797     -56.771
  O     -177.360      -9.968     -56.103
  C     -176.477      -9.195     -58.222
  O     -175.098      -9.576     -58.303
  C     -177.324     -10.438     -58.422
  O     -176.823     -11.274     -59.460
  C     -177.248     -11.061     -57.032
  N     -179.166     -15.273     -58.970
  C     -177.996     -14.604     -59.262
  N     -177.242     -15.093     -60.269
  N     -177.597     -13.536     -58.623
  C     -178.434     -13.162     -57.625
  C     -179.621     -13.735     -57.240
  C     -180.062     -14.908     -57.967
  O     -181.099     -15.532     -57.770
  N     -180.205     -13.020     -56.224
  C     -179.381     -12.007     -56.013
  N     -178.294     -12.050     -56.840
  O     -181.368      -7.576     -58.086
  O     -180.565      -6.393     -55.958
  H     -175.853     -11.343     -59.354
  H     -182.221      -7.217     -57.778
  H     -179.436     -16.081     -59.504
  H     -179.536     -11.215     -55.296
  H     -176.292     -11.569     -56.852
  H     -178.354     -10.155     -58.672
  H     -177.467     -15.928     -60.787
  H     -176.689      -8.411     -58.955
  H     -176.360     -14.636     -60.467
  H     -175.880      -8.533     -56.232
  H     -178.036      -7.498     -55.587
  H     -177.348      -6.717     -57.030
  P     -174.022      -8.439     -58.648
  C     -173.796      -8.764     -61.220
  O     -173.192      -8.895     -59.942
  O     -172.957      -8.579     -57.461
  O     -174.595      -7.062     -58.708
  H     -172.598      -7.701     -57.233
  H     -173.118      -9.109     -61.972
  H     -174.034      -7.736     -61.398
  H     -174.692      -9.348     -61.253

 6  7  8  9  10  11  12  13  14  15  26  29  33  34 0
 6-311+G(2d,p)
 ****
 36  38  39  40  41 0
 6-311+G(2d,p)
 ****
 1  2  3  4  5  16  17  18  19  20  21  22  23  24  25 0
 3-21G
 ****
 27  28  30  31  32  35  37  42  43  44  45  46  47 0
 3-21G
 ****
 48  49 0
 3-21G
 ****


