%nproc=1
%NoSave
%Mem=1900MB
#P OB98/GEN NMR

erre ene a

0 1
  C      -30.974      -7.423      62.329
  O      -32.170      -6.800      61.909
  H      -30.651      -6.961      63.265
  H      -30.190      -7.281      61.581
  H      -31.133      -8.491      62.503
  P      -32.935      -7.380      60.626
  C      -33.957      -9.646      59.949
  O      -33.123      -8.953      60.868
  C      -33.446     -11.070      59.753
  O      -32.206     -11.060      59.012
  C      -33.145     -11.802      61.056
  O      -34.339     -12.221      61.686
  C      -32.252     -12.923      60.545
  O      -33.032     -13.976      59.958
  C      -31.425     -12.191      59.462
  N      -30.109     -11.766      59.942
  C      -29.145     -12.763      60.049
  O      -29.358     -13.940      59.768
  N      -27.929     -12.365      60.538
  C      -27.626     -11.118      61.004
  O      -26.604     -10.862      61.633
  C      -28.658     -10.091      60.797
  C      -29.840     -10.459      60.298
  O      -32.354      -7.008      59.303
  O      -34.426      -6.814      60.791
  H      -34.544      -6.043      60.204
  H      -32.410     -14.704      59.764
  H      -27.237     -13.089      60.665
  H      -28.432      -9.075      61.094
  H      -30.626      -9.725      60.164
  H      -31.276     -12.840      58.590
  H      -31.654     -13.372      61.340
  H      -32.558     -11.159      61.722
  H      -34.188     -11.621      59.161
  H      -33.934      -9.116      58.991
  H      -34.984      -9.650      60.329
  P      -34.386     -12.516      63.257
  C      -34.401     -11.124      65.408
  O      -34.057     -11.151      64.030
  O      -33.582     -13.691      63.705
  O      -35.942     -12.739      63.569
  H      -36.056     -13.592      64.033
  H      -34.140     -10.173      65.822
  H      -33.869     -11.896      65.924
  H      -35.454     -11.283      65.516

 6  7  8  9  10  11  12  13  14  15  16  27  31  32  33  34  35 0
 6-311+G(2d,p)
 ****
 36  37 0
 6-311+G(2d,p)
 ****
 1  2  3  4  5  17  18  19  20  21  22  23  24  25 0
 3-21G
 ****
 26  28  29  30  38  39  40  41  42  43  44  45 0
 3-21G
 ****


