%nproc=1
%NoSave
%Mem=1900MB
#P OB98/GEN NMR

erre ene a

0 1
  C      681.507      78.499     713.255
  O      681.127      79.424     714.258
  P      681.926      80.816     714.319
  C      683.753      80.149     716.057
  O      683.440      80.468     714.701
  C      684.751      81.162     716.619
  O      685.802      81.402     715.664
  C      684.158      82.527     716.932
  O      683.392      82.500     718.121
  C      685.423      83.374     716.999
  O      686.072      83.180     718.272
  C      686.283      82.758     715.872
  N      688.308      86.540     713.069
  C      688.607      86.063     714.297
  N      688.015      85.072     714.986
  C      686.997      84.543     714.271
  C      686.558      84.936     713.026
  C      687.254      85.982     712.413
  N      686.940      86.470     711.161
  N      685.477      84.179     712.624
  C      685.282      83.334     713.615
  N      686.187      83.503     714.632
  O      681.361      81.506     715.650
  O      681.754      81.691     713.116
  H      685.402      83.346     718.964
  H      681.317      82.475     715.547
  H      689.454      86.545     714.794
  H      684.500      82.579     713.643
  H      687.344      82.698     716.135
  H      685.237      84.440     716.882
  H      683.529      82.870     716.098
  H      685.197      80.724     717.522
  H      684.199      79.149     716.103
  H      687.393      87.315     710.857
  H      686.072      86.151     710.733
  H      682.826      80.141     716.641
  P      682.204      83.562     718.269
  C      683.180      84.957     720.187
  O      682.937      84.896     718.794
  O      681.450      83.035     719.574
  O      681.356      83.722     717.044
  H      682.069      82.862     720.306
  H      683.728      85.880     720.398
  H      683.792      84.101     720.506
  H      682.241      84.966     720.738
  H      680.898      77.623     713.329
  H      682.534      78.231     713.387
  H      681.376      78.944     712.291

 3  4  5  6  7  8  9  10  11  12  22  25  29  30  31  32 0
 6-311+G(2d,p)
 ****
 33  36  37 0
 6-311+G(2d,p)
 ****
 1  2  13  14  15  16  17  18  19  20  21  23  24  26 0
 3-21G
 ****
 27  28  34  35  38  39  40  41  42  43  44  45  46  47  48 0
 3-21G
 ****


