%nproc=1
%NoSave
%Mem=1900MB
#P OB98/GEN NMR

erre ene a

0 1
  C       47.490    -147.244     -38.161
  O       48.650    -147.122     -37.362
  P       49.858    -148.157     -37.548
  C       51.155    -146.633     -39.160
  O       50.512    -147.890     -38.987
  C       52.582    -146.832     -39.663
  O       52.578    -147.499     -40.943
  C       53.351    -145.534     -39.880
  O       53.783    -144.992     -38.648
  C       54.472    -146.006     -40.799
  O       55.528    -146.615     -40.037
  C       53.755    -147.058     -41.657
  N       55.358    -146.323     -46.443
  C       56.011    -146.698     -45.323
  N       55.520    -146.834     -44.074
  C       54.216    -146.511     -44.041
  C       53.425    -146.077     -45.095
  C       54.043    -146.008     -46.354
  N       53.376    -145.684     -47.514
  N       52.141    -145.811     -44.656
  C       52.163    -146.074     -43.365
  N       53.373    -146.559     -42.965
  O       49.529    -149.583     -37.256
  O       50.979    -147.617     -36.541
  H       55.846    -145.948     -39.397
  H       51.176    -148.305     -35.877
  H       57.065    -146.930     -45.447
  H       51.328    -145.943     -42.689
  H       54.376    -147.948     -41.817
  H       54.916    -145.189     -41.375
  H       52.725    -144.815     -40.420
  H       53.108    -147.479     -38.948
  H       51.170    -146.118     -38.195
  H       53.875    -145.806     -48.381
  H       52.359    -145.746     -47.519
  H       50.583    -146.027     -39.873
  P       53.972    -143.411     -38.497
  C       52.191    -143.551     -36.657
  O       52.645    -142.845     -37.795
  O       54.396    -142.688     -39.732
  O       55.071    -143.271     -37.338
  H       55.609    -142.474     -37.497
  H       51.673    -144.462     -36.972
  H       51.491    -142.918     -36.109
  H       53.025    -143.812     -36.001
  H       46.795    -146.473     -37.901
  H       47.041    -148.201     -37.994
  H       47.756    -147.150     -39.193

 3  4  5  6  7  8  9  10  11  12  22  25  29  30  31  32 0
 6-311+G(2d,p)
 ****
 33  36  37 0
 6-311+G(2d,p)
 ****
 1  2  13  14  15  16  17  18  19  20  21  23  24  26 0
 3-21G
 ****
 27  28  34  35  38  39  40  41  42  43  44  45  46  47  48 0
 3-21G
 ****


