%nproc=1
%NoSave
%Mem=1900MB
#P OB98/GEN NMR

erre ene a

0 1
  C       47.415      30.179      -8.575
  O       47.870      31.426      -9.051
  H       46.779      30.349      -7.703
  H       48.270      29.569      -8.273
  H       46.835      29.648      -9.334
  P       48.427      31.523     -10.546
  C       50.667      31.156     -11.775
  O       49.984      31.128     -10.528
  C       52.152      31.470     -11.598
  O       52.310      32.828     -11.132
  C       52.825      30.567     -10.560
  O       53.310      29.339     -11.076
  C       53.971      31.448     -10.071
  O       55.143      31.279     -10.885
  C       53.415      32.868     -10.218
  N       54.769      34.414      -5.538
  C       55.506      33.695      -6.460
  N       56.739      33.315      -6.063
  N       55.058      33.373      -7.645
  C       53.774      33.737      -7.858
  C       52.939      34.433      -7.014
  C       53.467      34.851      -5.733
  O       52.862      35.502      -4.889
  N       51.686      34.587      -7.556
  C       51.742      33.909      -8.685
  N       53.009      33.444      -8.949
  O       48.476      33.103     -10.824
  O       47.602      30.830     -11.588
  H       54.938      31.609     -11.781
  H       48.316      33.273     -11.770
  H       55.177      34.658      -4.653
  H       50.913      33.763      -9.368
  H       54.161      33.546     -10.651
  H       54.257      31.183      -9.050
  H       57.100      33.460      -5.135
  H       52.154      30.381      -9.717
  H       57.237      32.627      -6.633
  H       52.654      31.405     -12.571
  H       50.189      31.932     -12.373
  H       50.537      30.207     -12.301
  P       52.953      27.953     -10.368
  C       53.610      26.805      -8.100
  O       53.861      27.803      -9.065
  O       53.564      26.867     -11.371
  O       51.501      27.720     -10.107
  H       52.868      26.502     -11.949
  H       54.331      26.880      -7.313
  H       53.681      25.840      -8.558
  H       52.628      26.937      -7.697

 6  7  8  9  10  11  12  13  14  15  26  29  33  34 0
 6-311+G(2d,p)
 ****
 36  38  39  40  41 0
 6-311+G(2d,p)
 ****
 1  2  3  4  5  16  17  18  19  20  21  22  23  24  25 0
 3-21G
 ****
 27  28  30  31  32  35  37  42  43  44  45  46  47 0
 3-21G
 ****
 48  49 0
 3-21G
 ****


