%nproc=1
%NoSave
%Mem=1900MB
#P OB98/GEN NMR

erre ene a

0 1
  C     -179.498    -126.901    -706.741
  O     -180.376    -127.121    -705.656
  H     -179.838    -126.042    -707.320
  H     -178.496    -126.696    -706.346
  H     -179.447    -127.788    -707.382
  P     -181.858    -127.618    -706.013
  C     -183.829    -126.464    -707.271
  O     -182.655    -126.301    -706.480
  C     -184.245    -125.136    -707.896
  O     -184.723    -124.254    -706.834
  C     -183.105    -124.411    -708.624
  O     -183.628    -123.792    -709.802
  C     -182.665    -123.347    -707.632
  O     -182.043    -122.239    -708.269
  C     -183.977    -123.016    -706.938
  N     -181.747    -119.215    -704.357
  C     -181.863    -119.467    -705.677
  N     -182.478    -120.497    -706.290
  C     -183.054    -121.292    -705.374
  C     -183.025    -121.183    -703.999
  C     -182.312    -120.086    -703.477
  N     -182.159    -119.845    -702.130
  N     -183.714    -122.231    -703.402
  C     -184.143    -122.968    -704.406
  N     -183.777    -122.446    -705.616
  O     -182.473    -127.933    -704.567
  O     -181.950    -128.793    -706.934
  H     -181.723    -121.616    -707.582
  H     -182.160    -128.807    -704.265
  H     -181.396    -118.740    -706.330
  H     -184.714    -123.879    -704.301
  H     -184.594    -122.300    -707.507
  H     -181.949    -123.780    -706.918
  H     -182.289    -125.084    -708.899
  H     -185.094    -125.311    -708.566
  H     -184.643    -126.850    -706.639
  H     -181.590    -119.057    -701.850
  H     -182.525    -120.508    -701.469
  H     -183.616    -127.196    -708.066
  P     -183.169    -124.417    -711.218
  C     -180.999    -124.640    -712.579
  O     -181.582    -124.242    -711.365
  O     -183.782    -123.388    -712.289
  O     -183.689    -125.802    -711.439
  H     -184.279    -123.870    -712.973
  H     -179.943    -124.469    -712.541
  H     -181.423    -124.073    -713.381
  H     -181.186    -125.681    -712.740

 6  7  8  9  10  11  12  13  14  15  25  28  32  33  34  35 0
 6-311+G(2d,p)
 ****
 36  39  40 0
 6-311+G(2d,p)
 ****
 1  2  3  4  5  16  17  18  19  20  21  22  23  24 0
 3-21G
 ****
 26  27  29  30  31  37  38  41  42  43  44  45  46  47 0
 3-21G
 ****
 48 0
 3-21G
 ****


