%nproc=1
%NoSave
%Mem=1900MB
#P OB98/GEN NMR

erre ene a

0 1
  C     -863.699     311.577     467.069
  O     -864.482     312.106     466.012
  P     -865.457     311.106     465.221
  C     -865.102     309.194     463.503
  O     -864.551     309.942     464.576
  C     -864.036     308.919     462.434
  O     -863.552     310.182     461.902
  C     -862.826     308.152     462.961
  O     -862.313     307.296     461.919
  C     -861.787     309.234     463.195
  O     -860.466     308.713     463.173
  C     -862.115     310.196     462.057
  N     -857.997     313.112     462.443
  C     -858.127     311.850     461.907
  N     -856.987     311.239     461.507
  N     -859.277     311.222     461.779
  C     -860.333     311.944     462.235
  C     -860.326     313.214     462.773
  C     -859.053     313.882     462.921
  O     -858.868     314.999     463.410
  N     -861.594     313.630     463.081
  C     -862.367     312.592     462.783
  N     -861.634     311.541     462.295
  O     -865.902     311.978     463.950
  O     -866.643     310.643     465.998
  H     -859.854     309.470     463.051
  H     -866.825     312.281     464.068
  H     -857.093     313.539     462.536
  H     -863.436     312.558     462.917
  H     -861.681     309.850     461.104
  H     -861.954     309.699     464.175
  H     -856.073     311.635     461.635
  H     -863.013     307.550     463.852
  H     -857.047     310.296     461.151
  H     -864.509     308.386     461.604
  H     -865.922     309.754     463.053
  H     -865.499     308.244     463.879
  P     -861.469     306.020     462.407
  C     -858.932     305.578     462.805
  O     -859.929     306.435     462.290
  O     -861.684     304.967     461.217
  O     -861.894     305.473     463.735
  H     -861.574     304.051     461.552
  H     -858.309     305.223     461.982
  H     -859.362     304.710     463.319
  H     -858.319     306.131     463.508
  H     -863.105     312.357     467.497
  H     -863.059     310.809     466.689
  H     -864.343     311.166     467.819

 3  4  5  6  7  8  9  10  11  12  23  26  30  31 0
 6-311+G(2d,p)
 ****
 33  35  36  37  38 0
 6-311+G(2d,p)
 ****
 1  2  13  14  15  16  17  18  19  20  21  22  24  25 0
 3-21G
 ****
 27  28  29  32  34  39  40  41  42  43  44  45  46  47  48  49 0
 3-21G
 ****


