%nproc=1
%NoSave
%Mem=1900MB
#P OB98/GEN NMR

erre ene a

0 1
  C      -49.490     113.830     -78.201
  O      -49.551     112.468     -77.776
  P      -48.573     111.396     -78.455
  C      -50.404     110.734     -80.142
  O      -49.055     111.142     -79.967
  C      -50.538     109.802     -81.354
  O      -50.266     110.524     -82.590
  C      -49.559     108.622     -81.299
  O      -50.141     107.455     -81.904
  C      -48.421     109.085     -82.187
  O      -47.640     107.989     -82.657
  C      -49.194     109.838     -83.267
  N      -45.552     110.364     -86.828
  C      -46.220     109.278     -86.380
  N      -47.193     109.218     -85.447
  C      -47.470     110.443     -84.970
  C      -46.879     111.641     -85.337
  C      -45.867     111.574     -86.309
  N      -45.166     112.676     -86.744
  N      -47.419     112.695     -84.626
  C      -48.288     112.133     -83.811
  N      -48.379     110.781     -84.003
  O      -48.316     110.160     -77.661
  O      -47.221     112.233     -78.665
  H      -48.224     107.424     -83.196
  H      -46.457     111.669     -78.434
  H      -45.931     108.333     -86.829
  H      -48.863     112.653     -83.058
  H      -49.647     109.153     -83.994
  H      -47.764     109.760     -81.626
  H      -49.217     108.361     -80.292
  H      -51.571     109.443     -81.415
  H      -51.040     111.612     -80.276
  H      -44.381     112.515     -87.357
  H      -45.288     113.555     -86.260
  H      -50.754     110.247     -79.225
  P      -50.611     106.295     -80.891
  C      -48.440     104.959     -80.309
  O      -49.343     105.986     -79.964
  O      -51.230     105.122     -81.575
  O      -51.620     107.084     -79.932
  H      -51.270     107.914     -79.566
  H      -47.587     104.996     -79.628
  H      -48.075     105.089     -81.331
  H      -48.926     103.984     -80.210
  H      -50.203     114.408     -77.651
  H      -49.714     113.888     -79.246
  H      -48.507     114.215     -78.025

 3  4  5  6  7  8  9  10  11  12  22  25  29  30  31  32 0
 6-311+G(2d,p)
 ****
 33  36  37 0
 6-311+G(2d,p)
 ****
 1  2  13  14  15  16  17  18  19  20  21  23  24  26 0
 3-21G
 ****
 27  28  34  35  38  39  40  41  42  43  44  45  46  47  48 0
 3-21G
 ****


