%nproc=1
%NoSave
%Mem=1900MB
#P OB98/GEN NMR

erre ene a

0 1
  C      -79.757    -424.802     -40.494
  O      -78.803    -423.822     -40.120
  P      -79.335    -422.493     -39.393
  C      -78.731    -423.550     -37.088
  O      -79.710    -422.907     -37.888
  C      -78.056    -422.545     -36.149
  O      -79.087    -421.897     -35.356
  C      -77.046    -423.154     -35.163
  O      -76.033    -422.167     -34.945
  C      -77.868    -423.336     -33.901
  O      -77.061    -423.430     -32.729
  C      -78.762    -422.102     -33.963
  N      -80.735    -422.188     -29.303
  C      -79.412    -422.090     -29.701
  N      -78.495    -421.931     -28.722
  N      -79.023    -422.138     -30.950
  C      -80.057    -422.284     -31.822
  C      -81.391    -422.433     -31.547
  C      -81.812    -422.338     -30.166
  O      -82.975    -422.336     -29.774
  N      -82.118    -422.648     -32.689
  C      -81.235    -422.546     -33.661
  N      -79.972    -422.282     -33.188
  O      -80.754    -422.250     -40.086
  O      -78.437    -421.297     -39.491
  H      -77.647    -423.681     -31.984
  H      -80.681    -421.634     -40.837
  H      -80.972    -422.124     -28.324
  H      -81.441    -422.651     -34.712
  H      -78.261    -421.197     -33.592
  H      -78.460    -424.257     -33.976
  H      -78.729    -421.854     -27.742
  H      -76.602    -424.083     -35.521
  H      -77.529    -421.820     -28.989
  H      -77.577    -421.771     -36.757
  H      -77.961    -423.979     -37.743
  H      -79.193    -424.361     -36.517
  P      -74.643    -422.650     -34.305
  C      -73.605    -423.172     -36.624
  O      -73.959    -423.662     -35.344
  O      -75.116    -423.611     -33.112
  O      -73.775    -421.548     -33.788
  H      -74.476    -423.562     -32.378
  H      -72.825    -423.816     -37.045
  H      -73.231    -422.151     -36.577
  H      -74.479    -423.208     -37.281
  H      -79.259    -425.624     -40.964
  H      -80.460    -424.373     -41.177
  H      -80.273    -425.149     -39.623

 3  4  5  6  7  8  9  10  11  12  23  26  30  31 0
 6-311+G(2d,p)
 ****
 33  35  36  37  38 0
 6-311+G(2d,p)
 ****
 1  2  13  14  15  16  17  18  19  20  21  22  24  25 0
 3-21G
 ****
 27  28  29  32  34  39  40  41  42  43  44  45  46  47  48  49 0
 3-21G
 ****


