%nproc=1
%NoSave
%Mem=1900MB
#P OB98/GEN NMR

erre ene a

0 1
  C      120.025    -782.871     114.014
  O      120.845    -781.753     114.382
  P      120.482    -780.230     114.002
  C      118.978    -779.633     116.026
  O      120.228    -779.414     115.360
  C      119.185    -779.802     117.528
  O      119.791    -781.082     117.817
  C      120.124    -778.789     118.177
  O      119.542    -777.501     118.296
  C      120.424    -779.462     119.510
  O      119.405    -779.189     120.482
  C      120.387    -780.961     119.131
  N      121.708    -781.582     119.151
  C      122.246    -781.866     120.421
  O      121.646    -781.523     121.438
  N      123.446    -782.510     120.500
  C      124.121    -782.758     119.405
  N      125.302    -783.414     119.534
  C      123.661    -782.341     118.061
  C      122.459    -781.783     118.004
  O      119.377    -780.101     113.004
  O      121.847    -779.609     113.430
  H      121.634    -778.875     112.826
  H      119.657    -779.671     121.289
  H      124.265    -782.538     117.186
  H      122.026    -781.464     117.066
  H      119.725    -781.515     119.806
  H      121.381    -779.133     119.941
  H      121.043    -778.722     117.585
  H      118.205    -779.769     118.018
  H      125.589    -783.685     120.465
  H      118.523    -780.547     115.624
  H      125.886    -783.669     118.752
  H      118.309    -778.800     115.806
  P      120.361    -776.269     117.678
  C      118.764    -775.442     115.799
  O      119.292    -775.223     117.086
  O      121.052    -776.882     116.376
  O      121.374    -775.674     118.611
  H      121.956    -776.522     116.285
  H      117.780    -774.988     115.737
  H      118.689    -776.511     115.574
  H      119.420    -774.964     115.057
  H      120.470    -783.774     114.376
  H      119.942    -782.917     112.948
  H      119.052    -782.756     114.443

 3  4  5  6  7  8  9  10  11  12  13  24  27  28  29  30  32 0
 6-311+G(2d,p)
 ****
 34  35 0
 6-311+G(2d,p)
 ****
 1  2  14  15  16  17  18  19  20  21  22  23  25  26 0
 3-21G
 ****
 31  33  36  37  38  39  40  41  42  43  44  45  46 0
 3-21G
 ****


