%nproc=1
%NoSave
%Mem=1900MB
#P OB98/GEN NMR

erre ene a

0 1
  C     -893.932    -632.249    -896.480
  O     -894.102    -632.440    -897.850
  H     -892.932    -631.878    -896.290
  H     -894.642    -631.495    -896.150
  H     -894.102    -633.173    -895.940
  P     -893.262    -633.622    -898.550
  C     -895.202    -635.333    -898.640
  O     -893.922    -634.991    -898.050
  C     -895.602    -636.754    -898.260
  O     -894.502    -637.671    -898.700
  C     -895.852    -636.969    -896.750
  O     -896.902    -637.894    -896.580
  C     -894.542    -637.617    -896.270
  O     -894.732    -638.368    -895.120
  C     -894.102    -638.415    -897.530
  N     -890.532    -641.744    -895.990
  C     -891.892    -641.770    -895.980
  N     -892.772    -640.847    -896.350
  C     -892.132    -639.812    -896.910
  C     -890.742    -639.657    -897.100
  C     -889.942    -640.679    -896.550
  N     -888.542    -640.640    -896.600
  N     -890.482    -638.399    -897.750
  C     -891.712    -637.907    -897.970
  N     -892.722    -638.750    -897.500
  O     -891.872    -633.597    -897.690
  O     -892.962    -633.491    -900.000
  H     -895.442    -639.038    -895.240
  H     -891.312    -632.865    -898.040
  H     -892.272    -642.676    -895.450
  H     -891.862    -636.982    -898.460
  H     -894.662    -639.418    -897.540
  H     -893.772    -636.837    -896.090
  H     -895.982    -636.007    -896.230
  H     -896.492    -637.063    -898.880
  H     -895.132    -635.263    -899.750
  H     -888.062    -641.358    -896.160
  H     -888.102    -639.803    -896.940
  H     -895.942    -634.632    -898.310
  P     -898.342    -637.217    -896.390
  C     -899.382    -638.496    -898.400
  O     -899.112    -637.247    -897.820
  O     -898.032    -635.667    -896.140
  O     -899.112    -637.812    -895.250
  H     -898.532    -635.361    -895.370
  H     -899.889    -638.355    -899.332
  H     -900.000    -639.069    -897.741
  H     -898.463    -639.017    -898.570

 6  7  8  9  10  11  12  13  14  15  25  28  32  33  34  35 0
 6-311+G(2d,p)
 ****
 36  39  40 0
 6-311+G(2d,p)
 ****
 1  2  3  4  5  16  17  18  19  20  21  22  23  24 0
 3-21G
 ****
 26  27  29  30  31  37  38  41  42  43  44  45  46  47 0
 3-21G
 ****
 48 0
 3-21G
 ****


