%nproc=1
%NoSave
%Mem=1900MB
#P OB98/GEN NMR

erre ene a

0 1
  C      989.033     284.715    1004.531
  O      987.836     285.317    1004.056
  H      988.969     283.640    1004.353
  H      989.147     284.899    1005.598
  H      989.896     285.115    1003.990
  P      987.720     286.907    1004.246
  C      986.844     286.788    1006.682
  O      986.563     287.146    1005.341
  C      985.724     287.260    1007.603
  O      985.578     288.694    1007.553
  C      984.355     286.661    1007.286
  O      984.208     285.369    1007.853
  C      983.424     287.692    1007.917
  O      983.302     287.483    1009.350
  C      984.160     289.009    1007.628
  N      980.387     291.545    1005.411
  C      980.506     291.079    1006.705
  N      979.443     291.271    1007.521
  N      981.577     290.471    1007.165
  C      982.543     290.316    1006.237
  C      982.552     290.754    1004.927
  C      981.369     291.455    1004.434
  O      981.230     291.950    1003.325
  N      983.726     290.434    1004.307
  C      984.417     289.779    1005.210
  N      983.731     289.663    1006.398
  O      987.035     287.400    1002.873
  O      989.006     287.622    1004.498
  H      982.901     288.274    1009.749
  H      987.344     288.301    1002.670
  H      979.551     292.026    1005.130
  H      985.402     289.361    1005.052
  H      984.038     289.744    1008.428
  H      982.414     287.642    1007.505
  H      978.513     291.410    1007.153
  H      984.186     286.642    1006.191
  H      979.518     290.904    1008.463
  H      986.019     287.002    1008.636
  H      987.781     287.258    1006.991
  H      986.958     285.698    1006.751
  P      983.639     284.197    1006.906
  C      981.265     284.055    1007.987
  O      982.534     283.422    1007.776
  O      984.847     283.153    1006.834
  O      983.213     284.648    1005.556
  H      984.723     282.552    1006.089
  H      980.643     283.418    1008.581
  H      980.794     284.234    1007.043
  H      981.411     284.985    1008.495

 6  7  8  9  10  11  12  13  14  15  26  29  33  34 0
 6-311+G(2d,p)
 ****
 36  38  39  40  41 0
 6-311+G(2d,p)
 ****
 1  2  3  4  5  16  17  18  19  20  21  22  23  24  25 0
 3-21G
 ****
 27  28  30  31  32  35  37  42  43  44  45  46  47 0
 3-21G
 ****
 48  49 0
 3-21G
 ****


