%nproc=1
%NoSave
%Mem=1900MB
#P OB98/GEN NMR

erre ene a

0 1
  C     -120.333      58.601      20.206
  O     -121.364      57.975      19.470
  H     -120.345      58.207      21.226
  H     -120.489      59.682      20.247
  H     -119.360      58.379      19.760
  P     -121.633      58.468      17.966
  C     -123.220      60.212      19.043
  O     -122.154      59.981      18.134
  C     -123.475      61.710      19.187
  O     -122.280      62.403      19.598
  C     -123.910      62.413      17.905
  O     -125.251      62.138      17.536
  C     -123.705      63.862      18.315
  O     -124.778      64.273      19.181
  C     -122.370      63.767      19.096
  N     -121.204      64.088      18.273
  C     -120.564      65.305      18.542
  O     -120.980      66.049      19.431
  N     -119.486      65.669      17.772
  C     -119.094      64.898      16.806
  N     -118.049      65.329      16.043
  C     -119.727      63.600      16.500
  C     -120.768      63.264      17.259
  O     -122.496      57.584      17.124
  O     -120.172      58.698      17.354
  H     -125.607      64.169      18.679
  H     -120.284      58.994      16.418
  H     -119.365      63.000      15.678
  H     -121.296      62.334      17.084
  H     -122.382      64.431      19.968
  H     -123.687      64.553      17.467
  H     -123.225      62.182      17.082
  H     -124.215      61.843      19.990
  H     -117.667      66.241      16.256
  H     -122.951      59.765      20.006
  H     -117.870      64.934      15.125
  H     -124.136      59.739      18.676
  P     -125.601      62.068      15.969
  C     -126.376      64.545      16.195
  O     -125.657      63.582      15.440
  O     -127.132      61.609      15.966
  O     -124.728      61.167      15.151
  H     -127.208      60.639      15.880
  H     -126.315      65.497      15.709
  H     -125.954      64.617      17.175
  H     -127.401      64.247      16.269

 6  7  8  9  10  11  12  13  14  15  16  26  30  31  32  33  35 0
 6-311+G(2d,p)
 ****
 37  38 0
 6-311+G(2d,p)
 ****
 1  2  3  4  5  17  18  19  20  21  22  23  24  25 0
 3-21G
 ****
 27  28  29  34  36  39  40  41  42  43  44  45  46 0
 3-21G
 ****


