%nproc=1
%NoSave
%Mem=1900MB
#P OB98/GEN NMR

erre ene a

0 1
  C      204.023     294.456    -314.669
  O      203.880     293.050    -314.669
  H      203.038     294.925    -314.745
  H      204.485     294.763    -313.726
  H      204.657     294.784    -315.496
  P      203.503     292.352    -316.063
  C      205.802     292.270    -317.267
  O      204.816     291.554    -316.539
  C      206.130     291.547    -318.572
  O      206.954     292.425    -319.391
  C      206.889     290.223    -318.392
  O      206.398     289.284    -319.353
  C      208.317     290.592    -318.747
  O      209.075     289.474    -319.201
  C      208.097     291.657    -319.814
  N      212.394     292.254    -322.466
  C      211.287     291.518    -322.696
  N      210.157     291.459    -321.961
  C      210.216     292.317    -320.930
  C      211.271     293.136    -320.570
  C      212.415     293.073    -321.387
  N      213.574     293.768    -321.122
  N      210.972     293.830    -319.414
  C      209.769     293.415    -319.068
  N      209.273     292.499    -319.952
  O      203.441     293.600    -317.067
  O      202.237     291.566    -316.069
  H      208.760     289.220    -320.089
  H      202.544     293.983    -317.055
  H      211.316     290.886    -323.580
  H      209.229     293.718    -318.181
  H      207.877     291.230    -320.802
  H      208.818     291.012    -317.865
  H      206.803     289.801    -317.384
  H      205.195     291.384    -319.122
  H      206.714     292.338    -316.663
  H      214.376     293.575    -321.701
  H      213.644     294.292    -320.261
  H      205.437     293.282    -317.471
  P      205.915     287.855    -318.808
  C      203.488     287.988    -317.877
  O      204.329     287.744    -318.999
  O      206.092     287.987    -317.223
  O      206.699     286.704    -319.354
  H      206.332     287.127    -316.836
  H      202.464     287.875    -318.167
  H      203.650     288.984    -317.520
  H      203.718     287.289    -317.100

 6  7  8  9  10  11  12  13  14  15  25  28  32  33  34  35 0
 6-311+G(2d,p)
 ****
 36  39  40 0
 6-311+G(2d,p)
 ****
 1  2  3  4  5  16  17  18  19  20  21  22  23  24 0
 3-21G
 ****
 26  27  29  30  31  37  38  41  42  43  44  45  46  47 0
 3-21G
 ****
 48 0
 3-21G
 ****


