%nproc=1
%NoSave
%Mem=1900MB
#P OB98/GEN NMR

erre ene a

0 1
  C     -116.622     124.665      82.979
  O     -117.456     125.534      83.718
  P     -118.440     124.975      84.848
  C     -120.408     124.721      83.229
  O     -119.943     125.334      84.423
  C     -121.857     125.109      82.932
  O     -122.743     124.382      83.822
  C     -122.151     126.606      83.097
  O     -123.068     126.977      82.060
  C     -122.827     126.676      84.453
  O     -123.620     127.843      84.604
  C     -123.600     125.354      84.455
  N     -123.982     124.933      85.794
  C     -125.152     125.485      86.320
  O     -125.739     126.384      85.715
  N     -125.612     125.013      87.524
  C     -124.872     124.208      88.223
  N     -125.399     123.713      89.377
  C     -123.515     123.802      87.806
  C     -123.154     124.159      86.577
  O     -118.083     125.363      86.246
  O     -118.384     123.382      84.668
  H     -118.164     122.971      85.525
  H     -123.899     127.917      85.541
  H     -122.888     123.234      88.477
  H     -122.188     123.888      86.167
  H     -124.505     125.437      83.839
  H     -122.067     126.676      85.244
  H     -121.252     127.226      83.023
  H     -122.091     124.791      81.911
  H     -126.346     123.982      89.609
  H     -120.350     123.637      83.356
  H     -125.043     122.861      89.808
  H     -119.757     124.993      82.391
  P     -122.511     127.101      80.559
  C     -122.336     129.682      80.349
  O     -123.009     128.504      79.964
  O     -123.447     126.055      79.778
  O     -121.073     126.747      80.348
  H     -122.979     125.741      78.982
  H     -122.849     130.538      79.907
  H     -121.303     129.667      79.988
  H     -122.344     129.795      81.439
  H     -116.046     125.233      82.279
  H     -117.224     123.955      82.452
  H     -115.964     124.149      83.646

 3  4  5  6  7  8  9  10  11  12  13  24  27  28  29  30  32 0
 6-311+G(2d,p)
 ****
 34  35 0
 6-311+G(2d,p)
 ****
 1  2  14  15  16  17  18  19  20  21  22  23  25  26 0
 3-21G
 ****
 31  33  36  37  38  39  40  41  42  43  44  45  46 0
 3-21G
 ****


