%nproc=1
%NoSave
%Mem=1900MB
#P OB98/GEN NMR

erre ene a

0 1
  C      302.850    -892.210    -474.986
  O      303.468    -891.570    -476.087
  H      302.163    -892.980    -475.370
  H      302.278    -891.480    -474.410
  H      303.597    -892.690    -474.346
  P      304.783    -890.700    -475.776
  C      306.341    -891.910    -477.470
  O      306.042    -891.640    -476.110
  C      306.507    -893.410    -477.700
  O      305.270    -894.080    -477.314
  C      306.807    -893.800    -479.158
  O      307.725    -894.900    -479.166
  C      305.461    -894.290    -479.661
  O      305.592    -895.160    -480.781
  C      304.905    -894.950    -478.403
  N      301.415    -898.000    -480.312
  C      302.791    -898.150    -480.218
  N      303.323    -899.270    -480.784
  N      303.574    -897.300    -479.636
  C      302.902    -896.240    -479.115
  C      301.557    -895.970    -479.139
  C      300.706    -896.930    -479.812
  O      299.480    -896.840    -479.940
  N      301.273    -894.760    -478.537
  C      302.461    -894.280    -478.174
  N      303.484    -895.150    -478.499
  O      304.787    -890.610    -474.172
  O      304.820    -889.350    -476.405
  H      306.036    -895.980    -480.478
  H      304.353    -889.780    -473.892
  H      300.868    -898.700    -480.798
  H      302.646    -893.340    -477.686
  H      305.359    -895.930    -478.228
  H      304.849    -893.430    -479.966
  H      302.794    -900.000    -481.222
  H      307.226    -892.980    -479.758
  H      304.327    -899.410    -480.688
  H      307.297    -893.780    -477.026
  H      307.276    -891.410    -477.738
  H      305.536    -891.510    -478.097
  P      309.152    -894.700    -479.869
  C      310.571    -895.800    -477.972
  O      310.270    -894.620    -478.722
  O      309.065    -893.200    -480.414
  O      309.427    -895.680    -480.969
  H      309.562    -893.130    -481.248
  H      311.332    -895.581    -477.252
  H      310.917    -896.565    -478.635
  H      309.689    -896.137    -477.468

 6  7  8  9  10  11  12  13  14  15  26  29  33  34 0
 6-311+G(2d,p)
 ****
 36  38  39  40  41 0
 6-311+G(2d,p)
 ****
 1  2  3  4  5  16  17  18  19  20  21  22  23  24  25 0
 3-21G
 ****
 27  28  30  31  32  35  37  42  43  44  45  46  47 0
 3-21G
 ****
 48  49 0
 3-21G
 ****


