%nproc=1
%NoSave
%Mem=1900MB
#P OB98/GEN NMR

erre ene a

0 1
  C        5.555     125.634    -192.444
  O        4.697     126.454    -191.674
  H        6.297     125.184    -191.781
  H        6.076     126.227    -193.199
  H        4.986     124.834    -192.928
  P        3.518     127.235    -192.426
  C        3.454     128.534    -194.657
  O        4.233     128.151    -193.532
  C        4.364     128.918    -195.818
  O        5.183     127.798    -196.208
  C        3.614     129.364    -197.072
  O        3.208     130.717    -196.952
  C        4.688     129.151    -198.125
  O        5.650     130.221    -198.060
  C        5.326     127.832    -197.653
  N        5.536     124.374    -201.355
  C        6.304     125.505    -201.154
  N        7.229     125.776    -202.099
  N        6.159     126.310    -200.131
  C        5.148     125.950    -199.308
  C        4.309     124.860    -199.412
  C        4.517     123.949    -200.515
  O        3.870     122.925    -200.720
  N        3.361     124.863    -198.422
  C        3.647     125.931    -197.699
  N        4.716     126.632    -198.205
  O        2.555     127.983    -191.554
  O        2.794     126.103    -193.293
  H        6.370     129.987    -198.676
  H        2.048     125.707    -192.806
  H        5.686     123.806    -202.172
  H        3.120     126.235    -196.806
  H        6.398     127.783    -197.882
  H        4.297     129.129    -199.141
  H        7.186     125.365    -203.023
  H        2.771     128.703    -197.297
  H        7.767     126.628    -201.996
  H        5.042     129.705    -195.465
  H        2.836     129.384    -194.356
  H        2.794     127.712    -194.962
  P        1.975     131.291    -197.807
  C        1.391     130.810    -200.278
  O        2.414     131.107    -199.338
  O        1.551     132.672    -197.446
  O        0.827     130.198    -197.643
  H        0.247     130.346    -196.852
  H        1.820     130.714    -201.254
  H        0.670     131.600    -200.282
  H        0.913     129.892    -200.007

 6  7  8  9  10  11  12  13  14  15  26  29  33  34 0
 6-311+G(2d,p)
 ****
 36  38  39  40  41 0
 6-311+G(2d,p)
 ****
 1  2  3  4  5  16  17  18  19  20  21  22  23  24  25 0
 3-21G
 ****
 27  28  30  31  32  35  37  42  43  44  45  46  47 0
 3-21G
 ****
 48  49 0
 3-21G
 ****


