%nproc=1
%NoSave
%Mem=1900MB
#P OB98/GEN NMR

erre ene a

0 1
  C      178.775    -898.664      16.277
  O      179.876    -898.065      15.603
  P      181.326    -898.720      15.834
  C      182.407    -896.579      16.836
  O      181.974    -897.918      17.064
  C      183.084    -896.019      18.083
  O      182.093    -895.614      19.051
  C      183.983    -897.001      18.812
  O      185.271    -897.083      18.216
  C      184.074    -896.349      20.181
  O      185.017    -895.267      20.149
  C      182.658    -895.806      20.378
  N      180.431    -896.573      24.917
  C      181.285    -895.623      24.483
  N      181.843    -895.490      23.256
  C      181.463    -896.503      22.455
  C      180.633    -897.565      22.773
  C      180.086    -897.576      24.067
  N      179.189    -898.531      24.494
  N      180.477    -898.395      21.687
  C      181.202    -897.850      20.732
  N      181.807    -896.697      21.142
  O      182.158    -898.187      14.576
  O      181.342    -900.209      15.935
  H      184.828    -894.745      19.340
  H      182.903    -898.783      14.398
  H      181.548    -894.862      25.210
  H      181.305    -898.247      19.732
  H      182.653    -894.827      20.876
  H      184.413    -897.038      20.968
  H      183.505    -897.984      18.909
  H      183.644    -895.118      17.795
  H      181.540    -895.959      16.591
  H      178.710    -898.364      25.367
  H      178.783    -899.147      23.800
  H      183.098    -896.573      15.994
  P      186.172    -898.337      18.642
  C      188.144    -896.801      19.359
  O      187.195    -897.779      19.739
  O      187.096    -898.578      17.353
  O      185.401    -899.561      19.016
  H      187.384    -899.506      17.303
  H      188.527    -896.312      20.263
  H      187.686    -896.039      18.724
  H      188.974    -897.276      18.839
  H      177.878    -898.133      16.037
  H      178.940    -898.626      17.334
  H      178.679    -899.684      15.968

 3  4  5  6  7  8  9  10  11  12  22  25  29  30  31  32 0
 6-311+G(2d,p)
 ****
 33  36  37 0
 6-311+G(2d,p)
 ****
 1  2  13  14  15  16  17  18  19  20  21  23  24  26 0
 3-21G
 ****
 27  28  34  35  38  39  40  41  42  43  44  45  46  47  48 0
 3-21G
 ****


