%nproc=1
%NoSave
%Mem=1900MB
#P OB98/GEN NMR

erre ene a

0 1
  C     -390.973     818.182     -89.818
  O     -391.600     818.602     -91.032
  P     -390.896     818.139     -92.413
  C     -390.034     820.495     -93.115
  O     -389.702     819.160     -92.703
  C     -388.889     821.104     -93.909
  O     -388.516     820.281     -95.040
  C     -389.203     822.480     -94.515
  O     -389.105     823.526     -93.561
  C     -388.133     822.588     -95.571
  O     -386.902     823.062     -94.983
  C     -387.966     821.128     -96.051
  N     -387.441     820.667    -101.069
  C     -386.488     820.942    -100.104
  N     -385.229     821.105    -100.539
  N     -386.761     821.059     -98.835
  C     -388.076     820.852     -98.553
  C     -389.109     820.573     -99.417
  C     -388.795     820.461    -100.820
  O     -389.604     820.246    -101.728
  N     -390.292     820.409     -98.743
  C     -389.983     820.592     -97.493
  N     -388.647     820.855     -97.305
  O     -391.983     818.509     -93.514
  O     -390.533     816.686     -92.439
  H     -386.539     822.320     -94.470
  H     -391.895     817.920     -94.293
  H     -387.177     820.576    -102.052
  H     -390.675     820.515     -96.653
  H     -386.912     820.860     -96.164
  H     -388.381     823.297     -96.371
  H     -384.917     820.938    -101.497
  H     -390.206     822.465     -94.996
  H     -384.503     821.268     -99.842
  H     -388.015     821.208     -93.250
  H     -390.234     821.114     -92.224
  H     -390.963     820.463     -93.688
  P     -390.440     824.355     -93.233
  C     -389.424     826.384     -94.552
  O     -390.515     825.482     -94.385
  O     -390.000     825.191     -91.945
  O     -391.646     823.550     -93.009
  H     -390.808     825.406     -91.392
  H     -388.474     825.869     -94.478
  H     -389.506     827.169     -93.796
  H     -389.519     826.840     -95.529
  H     -391.531     818.550     -88.983
  H     -389.976     818.569     -89.779
  H     -390.942     817.113     -89.784

 3  4  5  6  7  8  9  10  11  12  23  26  30  31  33  0
 6-311+G(2d,p)
 ****
 35  36  37  38 0
 6-311+G(2d,p)
 ****
 1  2  13  14  15  16  17  18  19  20  21  22  24  25  27  28  29 0
 3-21G
 ****
 32  34  39  40  41  42  43  44  45  46  47  48  49 0
 3-21G
 ****


