%nproc=1
%NoSave
%Mem=1900MB
#P OB98/GEN NMR

erre ene a

0 1
  C      195.092    -114.860      65.543
  O      196.324    -114.649      66.205
  H      194.806    -115.907      65.658
  H      195.197    -114.633      64.478
  H      194.313    -114.230      65.983
  P      196.897    -113.152      66.188
  C      198.399    -113.534      64.089
  O      197.293    -112.850      64.661
  C      198.139    -113.812      62.606
  O      199.413    -114.104      61.956
  C      197.220    -115.019      62.355
  O      196.497    -114.797      61.132
  C      198.230    -116.137      62.143
  O      197.617    -117.246      61.530
  C      199.270    -115.389      61.315
  N      201.984    -118.876      58.775
  C      200.770    -118.337      58.542
  N      200.118    -117.403      59.267
  C      200.865    -117.005      60.309
  C      202.120    -117.463      60.674
  C      202.687    -118.453      59.851
  N      203.917    -119.020      60.093
  N      202.553    -116.830      61.824
  C      201.578    -116.002      62.146
  N      200.541    -116.073      61.256
  O      198.311    -113.292      66.926
  O      196.032    -112.120      66.828
  H      198.269    -117.782      61.036
  H      198.208    -113.111      67.878
  H      200.248    -118.707      57.664
  H      201.566    -115.344      63.004
  H      198.938    -115.217      60.283
  H      198.648    -116.476      63.095
  H      196.518    -115.207      63.172
  H      197.744    -112.905      62.131
  H      198.543    -114.476      64.627
  H      199.299    -112.919      64.194
  H      204.239    -119.744      59.471
  H      204.434    -118.739      60.911
  P      194.895    -114.699      61.181
  C      194.314    -117.088      60.313
  O      194.247    -116.152      61.377
  O      194.534    -114.370      59.656
  O      194.347    -113.638      62.080
  H      193.877    -113.645      59.619
  H      193.837    -117.999      60.609
  H      195.338    -117.283      60.073
  H      193.817    -116.688      59.454

 6  7  8  9  10  11  12  13  14  15  25  28  32  33  34  35 0
 6-311+G(2d,p)
 ****
 36  37  40 0
 6-311+G(2d,p)
 ****
 1  2  3  4  5  16  17  18  19  20  21  22  23  24 0
 3-21G
 ****
 26  27  29  30  31  38  39 41  42  43  44  45  46  47  48 0
 3-21G
 ****


