%nproc=1
%NoSave
%Mem=1900MB
#P OB98/GEN NMR

erre ene a

0 1
  C     -272.096     130.872      92.939
  O     -271.442     131.486      94.034
  P     -271.924     132.905      94.596
  C     -269.714     133.864      93.723
  O     -271.118     134.048      93.813
  C     -268.974     135.202      93.659
  O     -267.542     134.960      93.615
  C     -269.340     136.061      92.439
  O     -269.366     137.426      92.874
  C     -268.181     135.826      91.489
  O     -268.039     136.867      90.537
  C     -267.021     135.689      92.486
  N     -265.868     135.017      91.905
  C     -265.212     135.682      90.863
  O     -265.686     136.715      90.388
  N     -264.042     135.146      90.381
  C     -263.671     133.964      90.770
  N     -262.472     133.497      90.316
  C     -264.479     133.129      91.683
  C     -265.528     133.728      92.238
  O     -271.897     133.037      96.084
  O     -273.415     133.068      94.036
  H     -274.016     133.264      94.779
  H     -267.711     137.671      90.993
  H     -264.194     132.102      91.879
  H     -266.169     133.209      92.948
  H     -266.712     136.676      92.854
  H     -268.330     134.884      90.950
  H     -270.313     135.800      92.014
  H     -269.185     135.749      94.584
  H     -261.930     134.116      89.728
  H     -269.505     133.298      92.812
  H     -261.966     132.759      90.802
  H     -269.359     133.266      94.573
  P     -270.257     138.473      92.049
  C     -268.359     140.234      91.845
  O     -269.270     139.385      91.175
  O     -270.717     139.491      93.202
  O     -271.467     137.923      91.352
  H     -271.550     139.925      92.934
  H     -267.817     140.822      91.099
  H     -267.640     139.642      92.413
  H     -268.895     140.916      92.511
  H     -271.624     129.937      92.721
  H     -272.034     131.511      92.083
  H     -273.124     130.704      93.186

 3  4  5  6  7  8  9  10  11  12  13  24  27  28  29  30  32 0
 6-311+G(2d,p)
 ****
 34  35 0
 6-311+G(2d,p)
 ****
 1  2  14  15  16  17  18  19  20  21  22  23  25  26 0
 3-21G
 ****
 31  33  36  37  38  39  40  41  42  43  44  45  46 0
 3-21G
 ****


