%nproc=1
%NoSave
%Mem=1900MB
#P OB98/GEN NMR

erre ene a

0 1
  C      256.259     -23.432     310.048
  O      255.270     -22.923     309.147
  P      254.237     -21.833     309.701
  C      254.666     -19.663     308.335
  O      253.877     -20.832     308.503
  C      254.169     -18.854     307.133
  O      254.480     -19.507     305.882
  C      252.661     -18.633     307.127
  O      252.286     -17.538     307.951
  C      252.424     -18.287     305.666
  O      252.765     -16.906     305.428
  C      253.411     -19.214     304.948
  N      250.196     -21.277     301.631
  C      250.593     -19.964     301.788
  N      250.059     -19.068     300.925
  N      251.436     -19.563     302.701
  C      251.900     -20.569     303.477
  C      251.584     -21.907     303.422
  C      250.639     -22.335     302.415
  O      250.239     -23.482     302.238
  N      252.254     -22.624     304.380
  C      252.991     -21.720     305.006
  N      252.800     -20.458     304.504
  O      255.149     -20.930     310.657
  O      253.070     -22.409     310.436
  H      252.004     -16.374     305.732
  H      254.603     -20.535     311.362
  H      249.541     -21.530     300.910
  H      253.675     -21.936     305.814
  H      253.863     -18.744     304.067
  H      251.377     -18.408     305.375
  H      249.443     -19.314     300.168
  H      252.123     -19.555     307.390
  H      250.365     -18.104     301.004
  H      254.674     -17.876     307.149
  H      255.718     -19.929     308.194
  H      254.632     -19.075     309.257
  P      251.302     -17.834     309.188
  C      252.468     -16.478     311.069
  O      251.403     -16.552     310.144
  O      252.080     -18.982     309.986
  O      249.930     -18.258     308.800
  H      251.439     -19.571     310.425
  H      252.471     -15.479     311.513
  H      253.426     -16.638     310.566
  H      252.334     -17.215     311.861
  H      256.872     -24.146     309.539
  H      255.776     -23.904     310.878
  H      256.868     -22.626     310.401

 3  4  5  6  7  8  9  10  11  12  23  26  30  31 0
 6-311+G(2d,p)
 ****
 33  35  36  37  38 0
 6-311+G(2d,p)
 ****
 1  2  13  14  15  16  17  18  19  20  21  22  24  25 0
 3-21G
 ****
 27  28  29  32  34  39  40  41  42  43  44  45  46  47  48  49 0
 3-21G
 ****


