%nproc=1
%NoSave
%Mem=1900MB
#P OB98/GEN NMR

erre ene a

0 1
  C      -84.934     -38.464     467.052
  O      -85.952     -39.145     467.751
  H      -84.076     -39.137     466.950
  H      -84.611     -37.581     467.609
  H      -85.274     -38.177     466.055
  P      -87.323     -38.376     468.083
  C      -89.290     -37.578     466.639
  O      -88.212     -38.499     466.747
  C      -90.330     -38.058     465.631
  O      -89.719     -38.158     464.314
  C      -90.928     -39.434     465.966
  O      -92.350     -39.386     465.835
  C      -90.349     -40.345     464.895
  O      -91.149     -41.502     464.656
  C      -90.220     -39.371     463.720
  N      -89.344     -39.882     462.675
  C      -89.869     -40.910     461.886
  O      -91.006     -41.332     462.083
  N      -89.067     -41.477     460.924
  C      -87.842     -41.084     460.797
  N      -87.093     -41.708     459.846
  C      -87.240     -40.020     461.630
  C      -88.042     -39.466     462.538
  O      -87.150     -36.991     468.604
  O      -88.096     -39.339     469.106
  H      -92.050     -41.213     464.403
  H      -88.744     -38.806     469.618
  H      -86.206     -39.736     461.489
  H      -87.692     -38.680     463.198
  H      -91.206     -39.156     463.280
  H      -89.352     -40.684     465.208
  H      -90.674     -39.779     466.968
  H      -91.114     -37.295     465.547
  H      -87.543     -42.436     459.303
  H      -88.884     -36.601     466.342
  H      -86.121     -41.504     459.674
  H      -89.762     -37.483     467.622
  P      -93.138     -38.564     466.968
  C      -93.828     -36.086     467.320
  O      -93.424     -37.086     466.401
  O      -92.028     -38.339     468.099
  O      -94.332     -39.283     467.506
  H      -92.240     -38.874     468.886
  H      -93.980     -35.164     466.799
  H      -93.068     -35.956     468.062
  H      -94.741     -36.383     467.792

 6  7  8  9  10  11  12  13  14  15  16  26  30  31  32  33  35 0
 6-311+G(2d,p)
 ****
 37  38 0
 6-311+G(2d,p)
 ****
 1  2  3  4  5  17  18  19  20  21  22  23  24  25 0
 3-21G
 ****
 27  28  29  34  36  39  40  41  42  43  44  45  46 0
 3-21G
 ****


