%nproc=1
%NoSave
%Mem=1900MB
#P OB98/GEN NMR

erre ene a

0 1
  C       80.419     364.730    -304.459
  O       79.672     364.628    -305.651
  H       80.526     365.788    -304.204
  H       81.413     364.295    -304.608
  H       79.916     364.219    -303.632
  P       79.060     363.205    -306.058
  C       80.655     362.489    -307.961
  O       79.370     362.984    -307.622
  C       80.868     362.486    -309.481
  O       79.787     361.753    -310.113
  C       80.814     363.918    -310.023
  O       81.597     364.069    -311.205
  C       79.345     364.090    -310.385
  O       79.121     365.124    -311.343
  C       79.001     362.685    -310.877
  N       74.722     361.251    -313.246
  C       75.940     361.608    -313.782
  N       76.023     361.603    -315.133
  N       76.979     361.956    -313.067
  C       76.725     361.987    -311.733
  C       75.556     361.678    -311.082
  C       74.424     361.260    -311.884
  O       73.311     360.949    -311.465
  N       75.670     361.851    -309.727
  C       76.908     362.268    -309.555
  N       77.594     362.353    -310.747
  O       77.475     363.455    -306.050
  O       79.438     362.056    -305.171
  H       78.181     365.114    -311.566
  H       77.003     362.620    -305.902
  H       73.959     360.972    -313.841
  H       77.361     362.507    -308.603
  H       79.267     362.570    -311.937
  H       78.806     364.371    -309.474
  H       75.209     361.515    -315.729
  H       81.138     364.649    -309.284
  H       76.794     362.129    -315.546
  H       81.794     361.968    -309.734
  H       80.719     361.467    -307.566
  H       81.431     363.075    -307.465
  P       83.127     364.513    -311.019
  C       82.773     367.055    -311.571
  O       83.367     365.818    -311.923
  O       83.949     363.361    -311.775
  O       83.548     364.663    -309.602
  H       84.375     362.775    -311.117
  H       83.047     367.799    -312.289
  H       83.115     367.352    -310.601
  H       81.708     366.948    -311.557

 6  7  8  9  10  11  12  13  14  15  26  29  33  34 0
 6-311+G(2d,p)
 ****
 36  38  39  40  41 0
 6-311+G(2d,p)
 ****
 1  2  3  4  5  16  17  18  19  20  21  22  23  24  25 0
 3-21G
 ****
 27  28  30  31  32  35  37  42  43  44  45  46  47 0
 3-21G
 ****
 48  49 0
 3-21G
 ****


