%nproc=1
%NoSave
%Mem=1900MB
#P OB98/GEN NMR

erre ene a

0 1
  C     -158.877     -63.445     -80.868
  O     -158.755     -64.818     -81.180
  H     -158.008     -62.915     -81.267
  H     -158.903     -63.312     -79.784
  H     -159.782     -63.026     -81.318
  P     -160.027     -65.745     -80.865
  C     -161.266     -66.455     -78.696
  O     -160.087     -65.908     -79.268
  C     -161.141     -66.504     -77.177
  O     -160.254     -67.573     -76.779
  C     -160.580     -65.231     -76.553
  O     -161.584     -64.239     -76.380
  C     -160.100     -65.764     -75.213
  O     -161.225     -65.946     -74.330
  C     -159.510     -67.124     -75.610
  N     -154.816     -67.776     -73.810
  C     -156.036     -67.892     -73.171
  N     -156.001     -68.218     -71.862
  N     -157.189     -67.700     -73.759
  C     -157.071     -67.368     -75.067
  C     -155.921     -67.226     -75.812
  C     -154.655     -67.448     -75.151
  O     -153.546     -67.383     -75.676
  N     -156.202     -66.891     -77.110
  C     -157.518     -66.811     -77.148
  N     -158.093     -67.084     -75.931
  O     -159.561     -67.196     -81.364
  O     -161.301     -65.329     -81.518
  H     -161.693     -65.092     -74.291
  H     -160.334     -67.661     -81.742
  H     -153.958     -67.925     -73.308
  H     -158.098     -66.561     -78.024
  H     -159.642     -67.880     -74.827
  H     -159.407     -65.087     -74.714
  H     -155.147     -68.332     -71.336
  H     -159.724     -64.847     -77.120
  H     -156.882     -68.342     -71.378
  H     -162.134     -66.731     -76.764
  H     -161.414     -67.471     -79.080
  H     -162.122     -65.837     -78.985
  P     -161.184     -62.713     -76.690
  C     -159.514     -61.022     -75.641
  O     -160.118     -62.309     -75.561
  O     -162.497     -61.904     -76.264
  O     -160.786     -62.439     -78.100
  H     -162.526     -61.045     -76.729
  H     -158.831     -60.897     -74.827
  H     -160.272     -60.268     -75.590
  H     -158.985     -60.933     -76.567

 6  7  8  9  10  11  12  13  14  15  26  29  33  34 0
 6-311+G(2d,p)
 ****
 36  38  39  40  41 0
 6-311+G(2d,p)
 ****
 1  2  3  4  5  16  17  18  19  20  21  22  23  24  25 0
 3-21G
 ****
 27  28  30  31  32  35  37  42  43  44  45  46  47 0
 3-21G
 ****
 48  49 0
 3-21G
 ****


