%nproc=1
%NoSave
%Mem=1900MB
#P OB98/GEN NMR

erre ene a

0 1
  C      353.789    -589.111     334.819
  O      353.201    -587.823     334.896
  P      352.431    -587.450     336.261
  C      350.574    -586.194     334.914
  O      351.554    -586.148     335.935
  C      350.185    -584.779     334.502
  O      349.409    -584.144     335.537
  C      351.378    -583.857     334.236
  O      351.888    -584.076     332.935
  C      350.748    -582.482     334.439
  O      350.028    -582.068     333.253
  C      349.781    -582.737     335.607
  N      350.294    -579.141     339.120
  C      349.813    -579.057     337.825
  N      349.361    -577.850     337.430
  N      349.766    -580.068     336.999
  C      350.267    -581.213     337.523
  C      350.795    -581.416     338.785
  C      350.781    -580.303     339.703
  O      351.107    -580.347     340.890
  N      351.223    -582.712     338.947
  C      350.934    -583.291     337.797
  N      350.329    -582.433     336.911
  O      353.605    -586.914     337.199
  O      351.660    -588.574     336.877
  H      349.439    -582.792     332.970
  H      353.903    -587.614     337.814
  H      350.283    -578.330     339.720
  H      351.111    -584.333     337.575
  H      348.850    -582.159     335.505
  H      351.496    -581.713     334.630
  H      349.382    -577.018     338.006
  H      352.153    -584.015     334.996
  H      349.001    -577.765     336.484
  H      349.552    -584.845     333.610
  H      349.686    -586.714     335.296
  H      350.970    -586.755     334.061
  P      353.365    -584.691     332.812
  C      353.882    -582.438     331.623
  O      354.148    -583.825     331.716
  O      353.116    -586.098     332.089
  O      354.071    -584.867     334.114
  H      353.740    -586.761     332.436
  H      354.784    -581.929     331.277
  H      353.595    -582.013     332.599
  H      353.080    -582.270     330.908
  H      354.265    -589.230     333.868
  H      353.030    -589.857     334.934
  H      354.516    -589.218     335.597

 3  4  5  6  7  8  9  10  11  12  23  26  30  31 0
 6-311+G(2d,p)
 ****
 33  35  36  37  38 0
 6-311+G(2d,p)
 ****
 1  2  13  14  15  16  17  18  19  20  21  22  24  25 0
 3-21G
 ****
 27  28  29  32  34  39  40  41  42  43  44  45  46  47  48  49 0
 3-21G
 ****


