%nproc=1
%NoSave
%Mem=1900MB
#P OB98/GEN NMR

erre ene a

0 1
  C       44.714    -186.549    -119.993
  O       45.911    -187.300    -119.967
  H       43.869    -187.237    -120.086
  H       44.712    -185.870    -120.850
  H       44.605    -185.979    -119.066
  P       47.276    -186.459    -119.894
  C       48.633    -184.999    -121.555
  O       47.458    -185.770    -121.334
  C       48.526    -184.228    -122.867
  O       47.177    -183.758    -123.077
  C       49.437    -183.009    -122.955
  O       50.744    -183.379    -123.357
  C       48.712    -182.175    -124.004
  O       49.005    -182.651    -125.335
  C       47.239    -182.424    -123.650
  N       44.831    -177.998    -123.293
  C       45.343    -178.650    -124.399
  N       45.221    -178.014    -125.585
  N       45.933    -179.813    -124.348
  C       46.039    -180.305    -123.089
  C       45.576    -179.757    -121.916
  C       44.872    -178.495    -121.996
  O       44.326    -177.908    -121.064
  N       45.856    -180.568    -120.845
  C       46.517    -181.584    -121.369
  N       46.659    -181.467    -122.728
  O       48.412    -187.590    -119.883
  O       47.409    -185.552    -118.718
  H       49.045    -183.623    -125.325
  H       49.131    -187.305    -119.286
  H       44.359    -177.120    -123.395
  H       46.904    -182.426    -120.810
  H       46.601    -182.425    -124.540
  H       49.027    -181.131    -123.975
  H       45.049    -177.021    -125.647
  H       49.453    -182.461    -122.005
  H       45.662    -178.458    -126.383
  H       48.749    -184.934    -123.681
  H       49.493    -185.672    -121.596
  H       48.763    -184.297    -120.724
  P       51.880    -182.250    -123.370
  C       52.773    -180.518    -125.089
  O       51.725    -181.408    -124.729
  O       53.222    -183.095    -123.605
  O       51.970    -181.441    -122.122
  H       53.724    -183.152    -122.770
  H       52.528    -180.033    -126.011
  H       53.683    -181.068    -125.207
  H       52.897    -179.783    -124.321

 6  7  8  9  10  11  12  13  14  15  26  29  33  34 0
 6-311+G(2d,p)
 ****
 36  38  39  40  41 0
 6-311+G(2d,p)
 ****
 1  2  3  4  5  16  17  18  19  20  21  22  23  24  25 0
 3-21G
 ****
 27  28  30  31  32  35  37  42  43  44  45  46  47 0
 3-21G
 ****
 48  49 0
 3-21G
 ****


