%nproc=1
%NoSave
%Mem=1900MB
#P OB98/GEN NMR

erre ene a

0 1
  C      -68.298      38.694     -43.942
  O      -68.795      39.098     -45.202
  H      -68.944      37.908     -43.544
  H      -68.297      39.537     -43.245
  H      -67.283      38.300     -44.046
  P      -68.036      40.326     -45.906
  C      -65.519      40.716     -46.473
  O      -66.488      39.905     -45.826
  C      -64.279      40.838     -45.594
  O      -64.577      41.587     -44.396
  C      -63.724      39.502     -45.111
  O      -62.965      38.829     -46.101
  C      -62.860      39.968     -43.955
  O      -61.646      40.551     -44.464
  C      -63.768      41.044     -43.317
  N      -64.621      40.517     -42.251
  C      -64.030      40.367     -40.990
  O      -62.848      40.659     -40.814
  N      -64.785      39.856     -39.962
  C      -66.024      39.533     -40.168
  N      -66.720      39.018     -39.119
  C      -66.690      39.690     -41.474
  C      -65.940      40.181     -42.457
  O      -68.133      41.501     -44.823
  O      -68.518      40.701     -47.266
  H      -61.906      41.182     -45.161
  H      -67.584      42.269     -45.112
  H      -67.722      39.396     -41.600
  H      -66.362      40.322     -43.446
  H      -63.171      41.869     -42.911
  H      -62.571      39.158     -43.283
  H      -64.516      38.855     -44.718
  H      -63.523      41.404     -46.153
  H      -66.220      38.864     -38.254
  H      -65.957      41.704     -46.649
  H      -67.623      38.575     -39.229
  H      -65.240      40.272     -47.434
  P      -62.707      37.257     -45.901
  C      -64.275      35.187     -45.900
  O      -64.136      36.576     -45.639
  O      -62.000      37.188     -44.468
  O      -61.878      36.612     -46.967
  H      -61.294      36.514     -44.455
  H      -65.276      34.881     -45.679
  H      -63.591      34.639     -45.286
  H      -64.062      34.995     -46.931

 6  7  8  9  10  11  12  13  14  15  16  26  30  31  32  33  35 0
 6-311+G(2d,p)
 ****
 37  38 0
 6-311+G(2d,p)
 ****
 1  2  3  4  5  17  18  19  20  21  22  23  24  25 0
 3-21G
 ****
 27  28  29  34  36  39  40  41  42  43  44  45  46 0
 3-21G
 ****


