%nproc=1
%NoSave
%Mem=1900MB
#P OB98/GEN NMR

erre ene a

0 1
  C      173.449    -196.597     -37.087
  O      172.363    -195.773     -37.449
  H      173.145    -197.217     -36.237
  H      174.308    -195.996     -36.784
  H      173.724    -197.254     -37.917
  P      172.592    -194.623     -38.548
  C      171.492    -195.750     -40.575
  O      171.342    -194.764     -39.558
  C      170.159    -196.428     -40.898
  O      169.478    -196.775     -39.663
  C      169.204    -195.557     -41.723
  O      168.661    -196.334     -42.795
  C      168.111    -195.183     -40.732
  O      166.885    -194.858     -41.383
  C      168.092    -196.423     -39.832
  N      167.432    -196.189     -38.553
  C      166.035    -196.130     -38.571
  O      165.426    -196.239     -39.636
  N      165.365    -195.915     -37.395
  C      166.032    -195.718     -36.302
  N      165.308    -195.500     -35.170
  C      167.508    -195.724     -36.241
  C      168.136    -195.968     -37.392
  O      173.932    -194.642     -39.202
  O      172.276    -193.259     -37.774
  H      167.049    -194.106     -41.995
  H      172.687    -192.503     -38.259
  H      168.019    -195.544     -35.308
  H      169.222    -196.002     -37.442
  H      167.588    -197.260     -40.333
  H      168.428    -194.308     -40.152
  H      169.679    -194.673     -42.144
  H      170.371    -197.376     -41.404
  H      164.299    -195.504     -35.252
  H      172.225    -196.489     -40.239
  H      165.720    -195.327     -34.264
  H      171.867    -195.254     -41.478
  P      168.980    -195.810     -44.280
  C      171.131    -197.059     -45.005
  O      169.714    -196.998     -45.072
  O      170.138    -194.733     -44.043
  O      167.799    -195.215     -44.971
  H      169.769    -193.831     -44.066
  H      171.479    -197.895     -45.575
  H      171.435    -197.171     -43.985
  H      171.546    -196.157     -45.404

 6  7  8  9  10  11  12  13  14  15  16  26  30  31  32  33  35 0
 6-311+G(2d,p)
 ****
 37  38 0
 6-311+G(2d,p)
 ****
 1  2  3  4  5  17  18  19  20  21  22  23  24  25 0
 3-21G
 ****
 27  28  29  34  36  39  40  41  42  43  44  45  46 0
 3-21G
 ****


