%nproc=1
%NoSave
%Mem=1900MB
#P OB98/GEN NMR

erre ene a

0 1
  C      -86.695       0.397     116.564
  O      -85.557       1.224     116.738
  P      -84.593       0.942     117.985
  C      -85.955       2.679     119.361
  O      -85.374       1.384     119.315
  C      -86.831       2.828     120.607
  O      -87.717       1.671     120.713
  C      -86.040       2.920     121.922
  O      -86.768       3.786     122.804
  C      -86.101       1.495     122.441
  O      -85.836       1.396     123.832
  C      -87.530       1.121     122.034
  N      -87.768      -0.324     122.056
  C      -88.232      -0.877     123.245
  O      -88.449      -0.229     124.269
  N      -88.385      -2.238     123.249
  C      -88.042      -3.090     122.239
  O      -88.093      -4.309     122.348
  C      -87.557      -2.448     121.006
  C      -87.445      -1.117     120.970
  O      -83.453       2.054     117.825
  O      -84.023      -0.438     118.036
  H      -85.728       0.451     124.045
  H      -82.652       1.668     117.424
  H      -88.732      -2.656     124.099
  H      -87.294      -3.093     120.176
  H      -87.071      -0.620     120.082
  H      -88.254       1.619     122.694
  H      -85.360       0.883     121.913
  H      -85.014       3.281     121.791
  H      -87.468       3.713     120.482
  H      -86.569       2.828     118.470
  H      -85.162       3.438     119.353
  P      -85.951       4.531     123.972
  C      -86.791       2.697     125.634
  O      -85.710       3.448     125.128
  O      -87.088       5.489     124.570
  O      -84.745       5.267     123.484
  H      -87.945       5.038     124.664
  H      -87.529       2.478     124.857
  H      -87.272       3.253     126.444
  H      -86.413       1.752     126.035
  H      -87.233       0.710     115.694
  H      -87.328       0.476     117.423
  H      -86.382      -0.619     116.444

 3  4  5  6  7  8  9  10  11  12  13  23  28  29  30  31  32 0
 6-311+G(2d,p)
 ****
 33  34 0
 6-311+G(2d,p)
 ****
 1  2  14  15  16  17  18  19  20  21  22  24  25  26 0
 3-21G
 ****
 27  35  36  37  38  39  40  41  42  43  44  45 0
 3-21G
 ****


