%nproc=1
%NoSave
%Mem=1900MB
#P OB98/GEN NMR

erre ene a

0 1
  C     -760.777      42.059    -715.633
  O     -760.890      40.944    -714.770
  H     -759.901      41.921    -716.269
  H     -760.650      42.976    -715.053
  H     -761.664      42.140    -716.270
  P     -762.087      40.919    -713.697
  C     -762.286      41.348    -711.158
  O     -761.422      41.307    -712.287
  C     -761.503      41.030    -709.885
  O     -761.226      39.619    -709.791
  C     -760.146      41.744    -709.786
  O     -760.321      43.080    -709.325
  C     -759.455      40.857    -708.755
  O     -759.950      41.163    -707.442
  C     -759.914      39.455    -709.190
  N     -755.243      37.678    -710.082
  C     -755.728      38.411    -709.020
  N     -754.814      38.760    -708.074
  N     -756.971      38.804    -708.899
  C     -757.734      38.446    -709.946
  C     -757.385      37.722    -711.065
  C     -756.011      37.242    -711.158
  O     -755.558      36.553    -712.072
  N     -758.410      37.631    -711.970
  C     -759.409      38.252    -711.379
  N     -759.051      38.781    -710.148
  O     -762.909      39.668    -713.654
  O     -762.959      42.210    -714.054
  H     -760.814      40.707    -707.350
  H     -763.683      41.985    -714.677
  H     -754.268      37.412    -710.128
  H     -760.411      38.360    -711.778
  H     -760.030      38.780    -708.340
  H     -758.365      41.006    -708.747
  H     -753.822      38.622    -708.190
  H     -759.605      41.698    -710.734
  H     -755.127      39.360    -707.323
  H     -762.140      41.290    -709.024
  H     -763.083      40.608    -711.312
  H     -762.749      42.341    -711.067
  P     -759.347      44.264    -709.810
  C     -757.231      45.334    -708.781
  O     -758.078      44.202    -708.824
  O     -760.002      45.604    -709.921
  O     -758.733      43.723    -711.197
  H     -759.310      43.897    -711.971
  H     -756.434      45.157    -708.089
  H     -757.793      46.188    -708.466
  H     -756.825      45.513    -709.755

 6  7  8  9  10  11  12  13  14  15  26  29  33  34 0
 6-311+G(2d,p)
 ****
 36  38  39  40  41 0
 6-311+G(2d,p)
 ****
 1  2  3  4  5  16  17  18  19  20  21  22  23  24  25 0
 3-21G
 ****
 27  28  30  31  32  35  37  42  43  44  45  46  47 0
 3-21G
 ****
 48  49 0
 3-21G
 ****


