%nproc=1
%NoSave
%Mem=1900MB
#P OB98/GEN NMR

erre ene a

0 1
  C       70.853      22.516     193.137
  O       71.062      21.306     192.394
  P       69.886      20.603     191.561
  C       69.799      18.621     189.915
  O       70.374      19.141     191.113
  C       70.850      17.937     189.033
  O       71.747      18.909     188.461
  C       71.730      16.929     189.765
  O       71.042      15.705     189.946
  C       72.937      16.858     188.833
  O       72.665      15.981     187.725
  C       73.053      18.309     188.351
  N       78.035      18.910     189.335
  C       77.372      18.072     188.509
  N       76.041      17.968     188.304
  C       75.379      18.872     189.048
  C       75.918      19.788     189.940
  C       77.318      19.788     190.074
  N       77.989      20.632     190.927
  N       74.923      20.531     190.539
  C       73.802      20.084     190.004
  N       74.025      19.084     189.100
  O       69.341      21.434     190.445
  O       68.747      20.296     192.646
  H       72.367      15.129     188.093
  H       67.873      20.290     192.211
  H       77.994      17.391     187.932
  H       72.813      20.454     190.238
  H       73.335      18.362     187.294
  H       73.834      16.484     189.332
  H       72.042      17.337     190.732
  H       70.322      17.452     188.202
  H       69.340      19.450     189.363
  H       78.992      20.548     190.994
  H       77.458      21.259     191.517
  H       69.016      17.903     190.188
  P       70.395      15.352     191.369
  C       69.212      13.223     192.178
  O       70.316      13.753     191.468
  O       69.131      16.073     191.699
  O       71.556      15.709     192.412
  H       71.157      15.978     193.259
  H       69.409      13.280     193.253
  H       69.083      12.175     191.895
  H       68.294      13.771     191.944
  H       71.767      22.805     193.613
  H       70.100      22.353     193.880
  H       70.536      23.292     192.472

 3  4  5  6  7  8  9  10  11  12  22  25  29  30  31  32 0
 6-311+G(2d,p)
 ****
 33  36  37 0
 6-311+G(2d,p)
 ****
 1  2  13  14  15  16  17  18  19  20  21  23  24  26 0
 3-21G
 ****
 27  28  34  35  38  39  40  41  42  43  44  45  46  47  48 0
 3-21G
 ****


