%nproc=1
%NoSave
%Mem=1900MB
#P OB98/GEN NMR

erre ene a

0 1
  C      -53.604      41.462      26.071
  O      -53.432      42.878      26.121
  P      -51.944      43.475      26.135
  C      -52.113      45.285      27.959
  O      -52.026      45.018      26.564
  C      -53.374      46.088      28.281
  O      -54.529      45.235      28.414
  C      -53.283      46.850      29.591
  O      -52.447      47.987      29.460
  C      -54.749      47.151      29.865
  O      -55.184      48.306      29.131
  C      -55.447      45.885      29.320
  N      -55.894      44.979      30.366
  C      -57.179      45.209      30.870
  O      -57.847      46.157      30.457
  N      -57.665      44.368      31.840
  C      -56.930      43.390      32.273
  N      -57.464      42.587      33.231
  C      -55.567      43.121      31.777
  C      -55.114      43.951      30.840
  O      -51.124      43.194      24.920
  O      -51.300      42.789      27.437
  H      -56.075      48.521      29.471
  H      -50.340      42.683      27.294
  H      -54.997      42.290      32.165
  H      -54.121      43.827      30.422
  H      -56.324      46.163      28.722
  H      -54.932      47.353      30.924
  H      -52.889      46.191      30.376
  H      -53.552      46.789      27.454
  H      -58.397      42.800      33.563
  H      -51.227      45.840      28.280
  H      -56.992      41.772      33.595
  H      -52.102      44.334      28.502
  P      -51.527      48.382      30.711
  C      -52.025      50.924      30.692
  O      -51.065      49.902      30.518
  O      -50.182      47.550      30.443
  O      -52.108      48.050      32.047
  H      -49.794      47.274      31.293
  H      -51.501      51.874      30.839
  H      -52.658      50.735      31.562
  H      -52.646      51.002      29.797
  H      -54.648      41.229      26.068
  H      -53.142      41.016      26.927
  H      -53.151      41.079      25.181

 3  4  5  6  7  8  9  10  11  12  13  23  27  28  29  30  32 0
 6-311+G(2d,p)
 ****
 34  35 0
 6-311+G(2d,p)
 ****
 1  2  14  15  16  17  18  19  20  21  22  24  25  26 0
 3-21G
 ****
 31  33  36  37  38  39  40  41  42  43  44  45  46 0
 3-21G
 ****


