%nproc=1
%NoSave
%Mem=1900MB
#P OB98/GEN NMR

erre ene a

0 1
  C     -469.003     -52.249    -781.768
  O     -469.767     -51.064    -781.674
  H     -469.237     -52.892    -780.921
  H     -467.938     -51.994    -781.730
  H     -469.225     -52.784    -782.694
  P     -469.885     -50.157    -782.987
  C     -470.371     -48.382    -781.151
  O     -470.521     -48.756    -782.523
  C     -471.300     -47.216    -780.828
  O     -471.219     -46.230    -781.888
  C     -472.779     -47.608    -780.671
  O     -473.361     -46.813    -779.630
  C     -473.379     -47.173    -781.992
  O     -474.787     -46.947    -781.902
  C     -472.565     -45.910    -782.272
  N     -474.538     -42.435    -785.306
  C     -474.442     -42.479    -783.933
  N     -475.017     -41.461    -783.243
  N     -473.844     -43.436    -783.274
  C     -473.298     -44.372    -784.087
  C     -473.327     -44.454    -785.459
  C     -474.014     -43.398    -786.168
  O     -474.140     -43.314    -787.386
  N     -472.709     -45.596    -785.889
  C     -472.329     -46.224    -784.786
  N     -472.663     -45.522    -783.666
  O     -471.083     -50.858    -783.789
  O     -468.647     -50.058    -783.812
  H     -475.229     -47.816    -781.812
  H     -470.719     -51.490    -784.439
  H     -475.038     -41.685    -785.766
  H     -471.828     -47.176    -784.751
  H     -472.900     -45.052    -781.672
  H     -473.200     -47.934    -782.755
  H     -475.481     -40.677    -783.684
  H     -472.935     -48.679    -780.466
  H     -474.924     -41.458    -782.235
  H     -470.942     -46.731    -779.901
  H     -469.335     -48.077    -780.977
  H     -470.594     -49.246    -780.516
  P     -473.833     -47.562    -778.289
  C     -476.275     -46.739    -777.893
  O     -474.903     -46.635    -777.530
  O     -472.531     -47.468    -777.349
  O     -474.254     -48.979    -778.494
  H     -472.468     -48.269    -776.797
  H     -476.853     -46.061    -777.300
  H     -476.614     -47.740    -777.723
  H     -476.390     -46.494    -778.928

 6  7  8  9  10  11  12  13  14  15  26  29  33  34 0
 6-311+G(2d,p)
 ****
 36  38  39  40  41 0
 6-311+G(2d,p)
 ****
 1  2  3  4  5  16  17  18  19  20  21  22  23  24  25 0
 3-21G
 ****
 27  28  30  31  32  35  37  42  43  44  45  46  47 0
 3-21G
 ****
 48  49 0
 3-21G
 ****


