%nproc=1
%NoSave
%Mem=1900MB
#P OB98/GEN NMR

erre ene a

0 1
  C      333.406    -895.990    -897.420
  O      332.880    -897.190    -896.850
  P      333.603    -897.920    -895.610
  C      331.792    -897.600    -893.770
  O      333.108    -897.220    -894.250
  C      330.772    -896.460    -894.040
  O      330.629    -896.200    -895.470
  C      329.350    -896.720    -893.540
  O      329.295    -896.590    -892.120
  C      328.558    -895.700    -894.310
  O      328.624    -894.400    -893.700
  C      329.287    -895.680    -895.680
  N      328.595    -896.450    -896.710
  C      327.407    -895.890    -897.210
  O      327.001    -894.820    -896.750
  N      326.756    -896.540    -898.200
  C      327.163    -897.710    -898.610
  N      326.452    -898.320    -899.610
  C      328.373    -898.370    -898.070
  C      329.034    -897.700    -897.100
  O      335.073    -898.010    -895.710
  O      332.949    -899.390    -895.560
  H      329.537    -894.080    -893.770
  H      333.583    -900.000    -895.180
  H      328.683    -899.380    -898.380
  H      329.897    -898.110    -896.640
  H      329.407    -894.640    -896.030
  H      327.504    -895.980    -894.390
  H      329.055    -897.730    -893.830
  H      331.177    -895.540    -893.580
  H      325.655    -897.830    -899.980
  H      331.815    -897.800    -892.700
  H      326.703    -899.220    -900.000
  H      331.465    -898.490    -894.320
  P      329.768    -897.800    -891.150
  C      331.339    -896.420    -889.710
  O      331.242    -897.470    -890.660
  O      329.571    -899.180    -891.730
  O      328.862    -897.580    -889.860
  H      328.690    -898.460    -889.440
  H      332.287    -896.550    -889.120
  H      330.501    -896.440    -888.970
  H      331.348    -895.440    -890.190
  H      332.778    -895.673    -898.227
  H      334.394    -896.173    -897.787
  H      333.439    -895.225    -896.673

 3  4  5  6  7  8  9  10  11  12  13  23  27  28  29  30  32 0
 6-311+G(2d,p)
 ****
 34  35 0
 6-311+G(2d,p)
 ****
 1  2  14  15  16  17  18  19  20  21  22  24  25  26 0
 3-21G
 ****
 31  33  36  37  38  39  40  41  42  43  44  45  46 0
 3-21G
 ****


