%nproc=1
%NoSave
%Mem=1900MB
#P OB98/GEN NMR

erre ene a

0 1
  C       78.172    -550.293    -441.975
  O       76.791    -550.411    -441.684
  H       78.737    -550.845    -441.221
  H       78.488    -549.247    -441.947
  H       78.390    -550.720    -442.959
  P       75.756    -549.557    -442.564
  C       74.402    -548.578    -440.586
  O       74.415    -549.477    -441.688
  C       72.974    -548.121    -440.300
  O       72.405    -547.494    -441.469
  C       72.037    -549.267    -439.947
  O       72.258    -549.712    -438.625
  C       70.690    -548.628    -440.206
  O       70.290    -547.793    -439.115
  C       70.988    -547.781    -441.469
  N       70.590    -548.452    -442.701
  C       69.759    -547.718    -443.560
  O       69.409    -546.580    -443.264
  N       69.331    -548.319    -444.723
  C       69.716    -549.522    -445.013
  N       69.256    -550.055    -446.178
  C       70.602    -550.321    -444.143
  C       70.988    -549.734    -443.015
  O       75.547    -550.000    -443.978
  O       76.336    -548.065    -442.478
  H       71.009    -547.134    -439.006
  H       76.965    -547.902    -443.205
  H       70.895    -551.322    -444.427
  H       71.646    -550.249    -442.318
  H       70.469    -546.819    -441.417
  H       69.910    -549.375    -440.355
  H       72.164    -550.094    -440.660
  H       73.005    -547.377    -439.497
  H       68.642    -549.474    -446.738
  H       75.025    -547.722    -440.862
  H       69.552    -550.940    -446.546
  H       74.831    -549.044    -439.697
  P       72.433    -551.276    -438.303
  C       71.442    -551.217    -435.914
  O       72.621    -551.360    -436.707
  O       73.461    -551.987    -439.113
  O       70.950    -551.853    -438.512
  H       70.717    -551.910    -439.472
  H       71.698    -551.291    -434.878
  H       70.747    -551.990    -436.166
  H       70.998    -550.262    -436.104

 6  7  8  9  10  11  12  13  14  15  16  26  30  31  32  33  35 0
 6-311+G(2d,p)
 ****
 37  38 0
 6-311+G(2d,p)
 ****
 1  2  3  4  5  17  18  19  20  21  22  23  24  25 0
 3-21G
 ****
 27  28  29  34  36  39  40  41  42  43  44  45  46 0
 3-21G
 ****


