%nproc=1
%NoSave
%Mem=1900MB
#P OB98/GEN NMR

erre ene a

0 1
  C        6.707    -222.551     -69.238
  O        6.873    -222.758     -67.845
  P        6.836    -224.261     -67.294
  C        5.261    -226.272     -67.769
  O        5.381    -224.866     -67.603
  C        3.871    -226.645     -68.286
  O        3.685    -226.098     -69.617
  C        3.635    -228.155     -68.377
  O        2.256    -228.439     -68.090
  C        3.866    -228.464     -69.844
  O        3.197    -229.659     -70.239
  C        3.321    -227.188     -70.488
  N        2.787    -228.379     -75.373
  C        1.908    -228.565     -74.323
  N        0.771    -229.235     -74.603
  N        2.123    -228.125     -73.110
  C        3.306    -227.477     -72.978
  C        4.251    -227.216     -73.945
  C        4.007    -227.717     -75.278
  O        4.757    -227.615     -76.244
  N        5.305    -226.501     -73.437
  C        5.024    -226.365     -72.156
  N        3.839    -226.969     -71.823
  O        6.828    -224.058     -65.704
  O        7.985    -225.109     -67.718
  H        2.242    -229.500     -70.122
  H        7.707    -224.276     -65.340
  H        2.583    -228.746     -76.285
  H        5.648    -225.862     -71.430
  H        2.226    -227.206     -70.554
  H        4.937    -228.585     -70.038
  H        0.578    -229.658     -75.499
  H        4.270    -228.757     -67.715
  H        0.130    -229.424     -73.843
  H        3.121    -226.174     -67.639
  H        5.429    -226.760     -66.808
  H        6.029    -226.624     -68.466
  P        1.887    -229.985     -67.870
  C        1.549    -232.011     -69.472
  O        1.918    -230.655     -69.326
  O        0.329    -229.944     -67.504
  O        2.700    -230.667     -66.820
  H        0.085    -230.725     -66.972
  H        0.658    -232.068     -70.102
  H        1.334    -232.489     -68.512
  H        2.366    -232.549     -69.959
  H        6.755    -221.504     -69.451
  H        5.756    -222.934     -69.545
  H        7.485    -223.059     -69.769

 3  4  5  6  7  8  9  10  11  12  23  26  30  31 0
 6-311+G(2d,p)
 ****
 33  35  36  37  38 0
 6-311+G(2d,p)
 ****
 1  2  13  14  15  16  17  18  19  20  21  22  24  25 0
 3-21G
 ****
 27  28  29  32  34  39  40  41  42  43  44  45  46  47  48  49 0
 3-21G
 ****


