%nproc=1
%NoSave
%Mem=1900MB
#P OB98/GEN NMR

erre ene a

0 1
  C       -5.709      29.625     194.934
  O       -4.672      29.568     195.925
  P       -3.288      30.314     195.593
  C       -1.455      28.643     196.444
  O       -2.246      29.797     196.697
  C       -1.347      27.795     197.711
  O       -2.664      27.437     198.201
  C       -0.615      26.473     197.516
  O        0.789      26.671     197.403
  C       -1.055      25.712     198.757
  O       -0.279      26.117     199.897
  C       -2.519      26.190     198.922
  N       -3.496      25.202     198.481
  C       -3.953      24.320     199.460
  O       -3.549      24.341     200.623
  N       -4.875      23.394     199.048
  C       -5.353      23.252     197.778
  O       -6.194      22.412     197.469
  C       -4.798      24.177     196.777
  C       -3.908      25.093     197.164
  O       -3.634      31.809     196.036
  O       -2.867      30.151     194.169
  H       -4.221      31.854     196.810
  H        0.637      25.819     199.727
  H       -5.229      22.760     199.744
  H       -5.136      24.075     195.753
  H       -3.484      25.785     196.441
  H       -2.723      26.422     199.975
  H       -0.939      24.627     198.649
  H       -0.991      25.968     196.616
  H       -0.843      28.398     198.483
  H       -0.453      28.941     196.124
  H       -1.910      28.075     195.623
  P        1.499      26.091     196.079
  C        3.406      24.886     197.398
  O        3.040      25.864     196.454
  O        1.507      27.390     195.140
  O        0.795      24.911     195.489
  H        1.780      28.196     195.608
  H        4.467      24.642     197.261
  H        2.822      23.972     197.276
  H        3.265      25.280     198.408
  H       -6.567      29.091     195.285
  H       -5.359      29.181     194.026
  H       -5.974      30.646     194.753

 3  4  5  6  7  8  9  10  11  12  13  24  28  29  30  31  32 0
 6-311+G(2d,p)
 ****
 33  34 0
 6-311+G(2d,p)
 ****
 1  2  14  15  16  17  18  19  20  21  22  23  25  26  27 0
 3-21G
 ****
 35  36  37  38  39  40  41  42  43  44  45 0
 3-21G
 ****


