%nproc=1
%NoSave
%Mem=1900MB
#P OB98/GEN NMR

erre ene a

0 1
  C      -55.192      78.752      66.062
  O      -56.312      78.568      66.903
  H      -54.283      78.609      66.653
  H      -55.193      79.767      65.660
  H      -55.198      78.026      65.245
  P      -57.749      78.531      66.190
  C      -57.734      81.087      66.644
  O      -58.078      80.039      65.750
  C      -57.056      82.224      65.887
  O      -55.867      81.747      65.219
  C      -57.923      82.862      64.806
  O      -58.813      83.829      65.345
  C      -56.857      83.518      63.944
  O      -56.395      84.728      64.577
  C      -55.748      82.457      63.955
  N      -54.687      81.629      59.068
  C      -54.464      82.748      59.848
  N      -53.885      83.802      59.234
  N      -54.785      82.831      61.113
  C      -55.368      81.706      61.590
  C      -55.639      80.534      60.918
  C      -55.271      80.454      59.523
  O      -55.424      79.478      58.794
  N      -56.228      79.611      61.740
  C      -56.332      80.226      62.901
  N      -55.831      81.503      62.861
  O      -58.761      78.274      67.407
  O      -57.909      77.500      65.125
  H      -57.186      85.268      64.759
  H      -59.491      77.705      67.095
  H      -54.430      81.622      58.096
  H      -56.758      79.794      63.795
  H      -54.747      82.900      63.919
  H      -57.226      83.794      62.956
  H      -53.658      83.822      58.252
  H      -58.454      82.105      64.217
  H      -53.682      84.622      59.793
  H      -56.739      82.977      66.621
  H      -57.047      80.700      67.404
  H      -58.642      81.449      67.135
  P      -60.382      83.643      65.049
  C      -60.394      85.971      63.896
  O      -60.696      84.584      63.788
  O      -61.073      84.417      66.268
  O      -60.841      82.230      64.946
  H      -61.978      84.079      66.407
  H      -60.656      86.465      62.984
  H      -59.347      86.095      64.081
  H      -60.952      86.396      64.705

 6  7  8  9  10  11  12  13  14  15  26  29  33  34 0
 6-311+G(2d,p)
 ****
 36  38  39  40  41 0
 6-311+G(2d,p)
 ****
 1  2  3  4  5  16  17  18  19  20  21  22  23  24  25 0
 3-21G
 ****
 27  28  30  31  32  35  37  42  43  44  45  46  47 0
 3-21G
 ****
 48  49 0
 3-21G
 ****


