%nproc=1
%NoSave
%Mem=1900MB
#P OB98/GEN NMR

erre ene a

0 1
  C      330.441     314.648    -390.019
  O      330.570     315.758    -389.160
  H      330.773     314.943    -391.023
  H      329.401     314.327    -390.085
  H      331.067     313.818    -389.676
  P      329.975     315.663    -387.669
  C      332.239     316.285    -386.619
  O      330.879     316.683    -386.801
  C      333.025     317.343    -385.837
  O      333.483     318.370    -386.744
  C      332.220     318.028    -384.722
  O      333.006     318.074    -383.525
  C      331.987     319.431    -385.257
  O      331.765     320.380    -384.214
  C      333.258     319.650    -386.084
  N      333.139     320.733    -387.049
  C      333.445     322.022    -386.573
  O      333.779     322.185    -385.401
  N      333.352     323.080    -387.441
  C      332.935     322.894    -388.656
  N      332.853     323.990    -389.468
  C      332.554     321.566    -389.180
  C      332.682     320.535    -388.338
  O      329.887     314.278    -387.118
  O      328.564     316.416    -387.748
  H      331.562     321.251    -384.628
  H      328.001     316.139    -386.987
  H      332.196     321.458    -390.199
  H      332.435     319.519    -388.639
  H      334.120     319.848    -385.439
  H      331.112     319.438    -385.915
  H      331.284     317.523    -384.503
  H      333.930     316.871    -385.437
  H      333.123     324.881    -389.058
  H      332.687     316.122    -387.605
  H      332.533     323.957    -390.425
  H      332.246     315.346    -386.057
  P      332.501     317.130    -382.320
  C      334.924     316.426    -381.697
  O      333.705     317.016    -381.252
  O      332.444     315.676    -382.994
  O      331.188     317.529    -381.744
  H      331.530     315.454    -383.233
  H      335.629     316.415    -380.892
  H      335.320     316.997    -382.511
  H      334.737     315.424    -382.022

 6  7  8  9  10  11  12  13  14  15  16  26  30  31  32  33  35 0
 6-311+G(2d,p)
 ****
 37  38 0
 6-311+G(2d,p)
 ****
 1  2  3  4  5  17  18  19  20  21  22  23  24  25 0
 3-21G
 ****
 27  28  29  34  36  39  40  41  42  43  44  45  46 0
 3-21G
 ****


