%nproc=1
%NoSave
%Mem=1900MB
#P OB98/GEN NMR

erre ene a

0 1
  C       78.692     -70.609    -123.144
  O       79.744     -71.493    -122.819
  H       78.667     -69.803    -122.405
  H       77.737     -71.137    -123.121
  H       78.855     -70.174    -124.134
  P       79.953     -72.756    -123.785
  C       79.070     -74.727    -122.348
  O       80.207     -74.019    -122.820
  C       79.391     -75.433    -121.031
  O       80.296     -76.541    -121.298
  C       80.063     -74.528    -119.989
  O       79.569     -74.872    -118.691
  C       81.526     -74.926    -120.081
  O       82.243     -74.619    -118.891
  C       81.395     -76.417    -120.375
  N       85.920     -78.247    -119.156
  C       84.885     -77.808    -118.355
  N       85.084     -77.858    -117.019
  N       83.753     -77.354    -118.821
  C       83.679     -77.383    -120.174
  C       84.634     -77.781    -121.077
  C       85.894     -78.262    -120.549
  O       86.856     -78.642    -121.208
  N       84.190     -77.624    -122.366
  C       82.969     -77.133    -122.241
  N       82.615     -76.973    -120.929
  O       81.392     -72.496    -124.435
  O       78.896     -72.958    -124.818
  H       83.184     -74.850    -119.038
  H       81.444     -72.881    -125.331
  H       86.776     -78.577    -118.746
  H       82.309     -76.877    -123.058
  H       81.158     -77.001    -119.476
  H       82.007     -74.403    -120.917
  H       85.917     -78.227    -116.588
  H       79.907     -73.462    -120.171
  H       84.332     -77.555    -116.411
  H       78.467     -75.871    -120.634
  H       78.777     -75.471    -123.098
  H       78.244     -74.025    -122.200
  P       78.159     -74.252    -118.244
  C       78.576     -73.651    -115.754
  O       77.948     -74.527    -116.677
  O       77.100     -75.233    -118.940
  O       77.955     -72.839    -118.682
  H       76.668     -74.776    -119.683
  H       78.345     -73.959    -114.756
  H       78.221     -72.654    -115.910
  H       79.636     -73.679    -115.900

 6  7  8  9  10  11  12  13  14  15  26  29  33  34 0
 6-311+G(2d,p)
 ****
 36  38  39  40  41 0
 6-311+G(2d,p)
 ****
 1  2  3  4  5  16  17  18  19  20  21  22  23  24  25 0
 3-21G
 ****
 27  28  30  31  32  35  37  42  43  44  45  46  47 0
 3-21G
 ****
 48  49 0
 3-21G
 ****


