%nproc=1
%NoSave
%Mem=1900MB
#P OB98/GEN NMR

erre ene a

0 1
  C       27.614     -99.370     231.779
  O       28.242     -98.141     232.089
  H       28.244    -100.185     232.149
  H       27.502     -99.470     230.696
  H       26.636     -99.429     232.261
  P       27.396     -96.803     231.798
  C       28.159     -96.962     229.289
  O       27.100     -96.819     230.218
  C       27.809     -96.278     227.965
  O       26.820     -97.085     227.271
  C       27.229     -94.870     228.131
  O       27.711     -94.051     227.062
  C       25.730     -95.082     227.988
  O       25.061     -93.889     227.579
  C       25.676     -96.250     226.992
  N       24.426     -97.006     227.087
  C       23.732     -97.228     225.888
  O       24.164     -96.773     224.829
  N       22.544     -97.913     225.928
  C       22.054     -98.287     227.077
  N       20.860     -98.945     227.047
  C       22.725     -98.032     228.366
  C       23.899     -97.402     228.297
  O       28.512     -95.669     231.967
  O       26.200     -96.633     232.674
  H       24.113     -94.112     227.429
  H       29.373     -95.905     231.574
  H       22.269     -98.351     229.295
  H       24.466     -97.181     229.199
  H       25.777     -95.882     225.962
  H       25.305     -95.391     228.952
  H       27.479     -94.408     229.086
  H       28.705     -96.267     227.331
  H       20.423     -99.085     226.145
  H       28.364     -98.024     229.109
  H       20.364     -99.235     227.879
  H       29.056     -96.508     229.723
  P       29.264     -93.663     227.010
  C       28.634     -91.168     227.256
  O       29.467     -92.230     227.709
  O       29.926     -93.811     225.677
  O       29.918     -94.662     228.087
  H       30.787     -94.954     227.733
  H       28.868     -90.275     227.798
  H       27.608     -91.425     227.418
  H       28.800     -91.005     226.212

 6  7  8  9  10  11  12  13  14  15  16  26  30  31  32  33  35 0
 6-311+G(2d,p)
 ****
 37  38 0
 6-311+G(2d,p)
 ****
 1  2  3  4  5  17  18  19  20  21  22  23  24  25 0
 3-21G
 ****
 27  28  29  34  36  39  40  41  42  43  44  45  46 0
 3-21G
 ****


