%nproc=1
%NoSave
%Mem=1900MB
#P OB98/GEN NMR

erre ene a

0 1
  C      -58.317     -98.654    -197.363
  O      -58.322     -99.843    -198.128
  H      -57.339     -98.549    -196.887
  H      -59.083     -98.696    -196.583
  H      -58.486     -97.786    -198.006
  P      -59.665    -100.250    -198.898
  C      -60.431    -101.864    -197.031
  O      -60.716    -100.678    -197.764
  C      -61.690    -102.713    -196.885
  O      -62.583    -102.128    -195.918
  C      -62.495    -102.868    -198.175
  O      -61.935    -103.878    -198.997
  C      -63.850    -103.259    -197.610
  O      -63.825    -104.644    -197.208
  C      -63.947    -102.355    -196.367
  N      -68.343     -99.913    -197.049
  C      -68.085    -101.269    -196.980
  N      -69.143    -102.090    -197.146
  N      -66.896    -101.772    -196.778
  C      -65.923    -100.836    -196.700
  C      -66.052     -99.467    -196.772
  C      -67.384     -98.919    -196.928
  O      -67.659     -97.723    -196.969
  N      -64.830     -98.843    -196.746
  C      -63.967     -99.832    -196.605
  N      -64.580    -101.065    -196.581
  O      -59.515    -101.257    -199.997
  O      -60.251     -98.860    -199.431
  H      -63.001    -104.783    -196.708
  H      -59.937     -98.670    -200.334
  H      -69.280     -99.583    -197.214
  H      -62.894     -99.715    -196.512
  H      -64.488    -102.841    -195.547
  H      -64.660    -103.148    -198.332
  H      -70.050    -101.769    -197.451
  H      -62.594    -101.914    -198.704
  H      -68.963    -103.087    -197.157
  H      -61.389    -103.694    -196.493
  H      -60.059    -101.561    -196.047
  H      -59.652    -102.446    -197.534
  P      -61.944    -103.759    -200.600
  C      -64.357    -104.688    -200.676
  O      -63.488    -103.616    -201.006
  O      -61.210    -104.842    -201.311
  O      -61.389    -102.290    -200.889
  H      -60.399    -102.249    -200.913
  H      -65.349    -104.457    -201.004
  H      -64.357    -104.834    -199.616
  H      -64.020    -105.582    -201.159

 6  7  8  9  10  11  12  13  14  15  26  29  33  34 0
 6-311+G(2d,p)
 ****
 36  38  39  40  41 0
 6-311+G(2d,p)
 ****
 1  2  3  4  5  16  17  18  19  20  21  22  23  24  25 0
 3-21G
 ****
 27  28  30  31  32  35  37  42  43  44  45  46  47 0
 3-21G
 ****
 48  49 0
 3-21G
 ****


