%nproc=1
%NoSave
%Mem=1900MB
#P OB98/GEN NMR

erre ene a

0 1
  C     -335.358     909.088     380.251
  O     -333.930     909.112     380.138
  P     -333.254     909.433     378.731
  C     -332.971     906.928     378.131
  O     -332.340     908.193     378.283
  C     -331.998     905.922     377.530
  O     -331.818     906.134     376.110
  C     -330.592     906.023     378.115
  O     -330.432     905.627     379.465
  C     -329.750     905.318     377.076
  O     -329.769     903.909     377.250
  C     -330.476     905.715     375.764
  N     -329.765     906.755     375.011
  C     -328.635     906.340     374.333
  O     -328.195     905.189     374.368
  N     -327.981     907.325     373.618
  C     -328.330     908.636     373.556
  O     -327.703     909.474     372.932
  C     -329.531     909.013     374.322
  C     -330.184     908.072     375.005
  O     -332.613     910.782     378.605
  O     -334.497     909.326     377.709
  H     -329.117     903.531     376.633
  H     -334.410     910.050     377.063
  H     -327.163     907.038     373.109
  H     -329.831     910.052     374.303
  H     -331.066     908.325     375.581
  H     -330.584     904.837     375.109
  H     -328.703     905.636     377.127
  H     -330.311     907.091     378.092
  H     -332.405     904.909     377.660
  H     -333.857     907.033     377.482
  H     -333.352     906.594     379.107
  P     -330.480     906.648     380.702
  C     -327.902     906.654     380.984
  O     -329.165     906.430     381.580
  O     -331.779     906.779     381.431
  O     -330.159     908.047     379.968
  H     -330.648     908.755     380.430
  H     -327.127     906.451     381.711
  H     -327.813     907.708     380.663
  H     -327.765     905.989     380.124
  H     -335.632     908.858     381.259
  H     -335.755     908.343     379.594
  H     -335.753     910.046     379.984

 3  4  5  6  7  8  9  10  11  12  13  23  28  29  30  31  32 0
 6-311+G(2d,p)
 ****
 33  34 0
 6-311+G(2d,p)
 ****
 1  2  14  15  16  17  18  19  20  21  22  24  25  26  27 0
 3-21G
 ****
 35  36  37  38  39  40  41  42  43  44  45 0
 3-21G
 ****


