%nproc=1
%NoSave
%Mem=1900MB
#P OB98/GEN NMR

erre ene a

0 1
  C     -858.789     539.704    1388.196
  O     -858.857     540.997    1388.760
  P     -858.077     541.273    1390.127
  C     -856.490     543.032    1388.952
  O     -857.415     542.735    1389.996
  C     -855.547     544.149    1389.391
  O     -856.255     545.395    1389.451
  C     -854.922     543.949    1390.757
  O     -853.859     542.989    1390.723
  C     -854.480     545.380    1391.090
  O     -853.231     545.678    1390.438
  C     -855.616     546.208    1390.481
  N     -856.585     546.666    1391.473
  C     -856.076     547.305    1392.598
  O     -854.869     547.486    1392.773
  N     -856.994     547.713    1393.529
  C     -858.332     547.493    1393.490
  O     -859.124     547.846    1394.372
  C     -858.837     546.785    1392.288
  C     -857.954     546.391    1391.356
  O     -856.841     540.262    1389.990
  O     -858.929     541.072    1391.337
  H     -856.624     540.080    1389.056
  H     -852.942     546.556    1390.765
  H     -856.644     548.200    1394.335
  H     -859.894     546.603    1392.218
  H     -858.304     545.874    1390.458
  H     -855.217     547.091    1389.988
  H     -854.331     545.529    1392.170
  H     -855.692     543.627    1391.481
  H     -854.765     544.243    1388.598
  H     -857.066     543.355    1388.061
  H     -855.935     542.122    1388.703
  P     -853.932     541.796    1391.812
  C     -853.842     539.888    1390.016
  O     -853.253     540.513    1391.123
  O     -855.514     541.453    1391.778
  O     -853.402     542.174    1393.155
  H     -855.884     541.447    1390.886
  H     -853.089     539.314    1389.476
  H     -854.279     540.610    1389.315
  H     -854.645     539.198    1390.378
  H     -859.358     539.680    1387.290
  H     -859.188     538.992    1388.888
  H     -857.769     539.461    1387.983

 3  4  5  6  7  8  9  10  11  12  13  24  28  29  30  31  32 0
 6-311+G(2d,p)
 ****
 33  34 0
 6-311+G(2d,p)
 ****
 1  2  14  15  16  17  18  19  20  21  22  23  25  26  27 0
 3-21G
 ****
 35  36  37  38  39  40  41  42  43  44  45 0
 3-21G
 ****


