%nproc=1
%NoSave
%Mem=1900MB
#P OB98/GEN NMR

erre ene a

0 1
  C     -126.061      19.452     141.480
  O     -125.074      18.604     142.066
  P     -123.773      19.268     142.730
  C     -122.103      18.439     140.961
  O     -122.701      19.573     141.573
  C     -121.276      18.809     139.722
  O     -120.337      19.876     140.027
  C     -120.466      17.645     139.133
  O     -120.462      17.816     137.711
  C     -119.085      17.890     139.708
  O     -118.069      17.203     138.993
  C     -119.026      19.418     139.644
  N     -117.990      19.974     140.500
  C     -116.868      20.519     139.875
  O     -116.737      20.424     138.654
  N     -115.913      21.128     140.653
  C     -116.003      21.058     141.944
  N     -115.048      21.691     142.680
  C     -117.082      20.333     142.640
  C     -118.044      19.843     141.865
  O     -123.227      18.554     143.921
  O     -124.286      20.735     143.126
  H     -118.292      16.248     138.960
  H     -123.843      21.011     143.953
  H     -117.069      20.232     143.715
  H     -118.881      19.301     142.280
  H     -118.849      19.759     138.615
  H     -119.054      17.548     140.750
  H     -120.879      16.662     139.375
  H     -121.967      19.194     138.961
  H     -114.301      22.163     142.189
  H     -122.888      17.734     140.670
  H     -115.076      21.727     143.691
  H     -121.487      17.916     141.703
  P     -121.674      17.208     136.853
  C     -120.702      14.800     136.772
  O     -121.764      15.641     137.168
  O     -121.057      17.214     135.369
  O     -122.951      17.983     136.877
  H     -121.788      17.246     134.724
  H     -120.794      13.848     137.302
  H     -119.732      15.240     137.018
  H     -120.759      14.611     135.696
  H     -126.856      18.854     141.086
  H     -125.618      20.022     140.690
  H     -126.449      20.115     142.225

 3  4  5  6  7  8  9  10  11  12  13  23  27  28  29  30  32 0
 6-311+G(2d,p)
 ****
 34  35 0
 6-311+G(2d,p)
 ****
 1  2  14  15  16  17  18  19  20  21  22  24  25  26 0
 3-21G
 ****
 31  33  36  37  38  39  40  41  42  43  44  45  46 0
 3-21G
 ****


