%nproc=1
%NoSave
%Mem=1900MB
#P OB98/GEN NMR

erre ene a

0 1
  C      -25.855      -5.282     -59.100
  O      -24.971      -6.266     -59.599
  H      -26.859      -5.484     -59.481
  H      -25.543      -4.290     -59.438
  H      -25.878      -5.314     -58.007
  P      -23.431      -6.128     -59.170
  C      -21.530      -4.516     -59.884
  O      -22.759      -5.133     -60.236
  C      -20.921      -3.813     -61.093
  O      -20.571      -4.770     -62.118
  C      -21.837      -2.787     -61.751
  O      -21.785      -1.545     -61.071
  C      -21.245      -2.716     -63.151
  O      -20.082      -1.864     -63.191
  C      -20.860      -4.179     -63.412
  N      -21.724      -7.552     -67.067
  C      -20.537      -7.028     -66.601
  N      -19.415      -7.425     -67.242
  N      -20.454      -6.186     -65.607
  C      -21.659      -5.856     -65.085
  C      -22.903      -6.318     -65.448
  C      -22.976      -7.275     -66.531
  O      -23.990      -7.826     -66.947
  N      -23.885      -5.763     -64.670
  C      -23.241      -4.939     -63.866
  N      -21.889      -4.947     -64.091
  O      -22.807      -7.553     -59.555
  O      -23.194      -5.794     -57.737
  H      -19.667      -1.929     -64.067
  H      -22.079      -7.758     -58.939
  H      -21.722      -8.211     -67.825
  H      -23.706      -4.319     -63.111
  H      -19.951      -4.264     -64.018
  H      -21.956      -2.305     -63.869
  H      -19.442      -7.785     -68.186
  H      -22.865      -3.165     -61.810
  H      -18.541      -7.027     -66.921
  H      -19.989      -3.338     -60.762
  H      -20.835      -5.284     -59.527
  H      -21.707      -3.794     -59.079
  P      -23.159      -0.730     -60.902
  C      -25.089      -0.220     -62.570
  O      -23.696      -0.436     -62.384
  O      -22.676       0.708     -60.395
  O      -24.142      -1.355     -59.970
  H      -23.426       1.193     -60.002
  H      -25.287      -0.039     -63.606
  H      -25.399       0.627     -61.994
  H      -25.630      -1.086     -62.250

 6  7  8  9  10  11  12  13  14  15  26  29  33  34 0
 6-311+G(2d,p)
 ****
 36  38  39  40  41 0
 6-311+G(2d,p)
 ****
 1  2  3  4  5  16  17  18  19  20  21  22  23  24  25 0
 3-21G
 ****
 27  28  30  31  32  35  37  42  43  44  45  46  47 0
 3-21G
 ****
 48  49 0
 3-21G
 ****


