%nproc=1
%NoSave
%Mem=1900MB
#P OB98/GEN NMR

erre ene a

0 1
  C      428.256     -33.068      67.132
  O      429.514     -33.737      66.992
  P      430.821     -32.935      67.472
  C      431.792     -32.229      65.178
  O      431.153     -31.810      66.375
  C      432.240     -31.029      64.334
  O      432.812     -31.469      63.069
  C      431.104     -30.059      63.994
  O      431.658     -28.738      63.947
  C      430.710     -30.470      62.589
  O      429.995     -29.435      61.920
  C      432.084     -30.812      62.011
  N      430.448     -31.075      57.182
  C      430.399     -30.089      58.098
  N      430.839     -30.105      59.377
  C      431.414     -31.284      59.660
  C      431.528     -32.390      58.833
  C      431.009     -32.258      57.535
  N      431.033     -33.272      56.607
  N      432.137     -33.436      59.498
  C      432.382     -32.966      60.708
  N      431.990     -31.665      60.842
  O      431.995     -34.007      67.283
  O      430.747     -32.451      68.882
  H      429.625     -29.803      61.093
  H      432.297     -34.327      68.152
  H      429.943     -29.156      57.764
  H      432.826     -33.527      61.515
  H      432.643     -29.915      61.711
  H      430.073     -31.360      62.626
  H      430.258     -30.080      64.691
  H      433.026     -30.495      64.880
  H      431.112     -32.846      64.587
  H      430.615     -33.106      55.706
  H      431.407     -34.172      56.871
  H      432.641     -32.874      65.431
  P      431.538     -27.864      65.285
  C      429.049     -27.172      65.018
  O      430.003     -27.939      65.733
  O      431.709     -26.356      64.770
  O      432.539     -28.212      66.337
  H      432.050     -25.792      65.487
  H      428.143     -27.770      64.891
  H      429.416     -26.873      64.033
  H      428.808     -26.278      65.596
  H      427.472     -33.705      66.779
  H      428.267     -32.164      66.559
  H      428.089     -32.835      68.163

 3  4  5  6  7  8  9  10  11  12  22  25  29  30  31  32 0
 6-311+G(2d,p)
 ****
 33  36  37 0
 6-311+G(2d,p)
 ****
 1  2  13  14  15  16  17  18  19  20  21  23  24  26 0
 3-21G
 ****
 27  28  34  35  38  39  40  41  42  43  44  45  46  47  48 0
 3-21G
 ****


