%nproc=1
%NoSave
%Mem=1900MB
#P OB98/GEN NMR

erre ene a

0 1
  C      487.553    -225.619     778.990
  O      488.643    -225.764     778.100
  H      487.374    -226.571     779.488
  H      486.647    -225.334     778.440
  H      487.784    -224.858     779.744
  P      489.048    -224.473     777.236
  C      487.740    -222.937     775.610
  O      487.701    -224.094     776.431
  C      486.959    -223.185     774.322
  O      485.700    -223.822     774.612
  C      486.604    -221.913     773.551
  O      487.702    -221.508     772.731
  C      485.436    -222.394     772.702
  O      485.932    -223.099     771.552
  C      484.712    -223.361     773.654
  N      479.704    -223.860     774.656
  C      480.502    -224.477     773.748
  N      481.815    -224.258     773.505
  C      482.292    -223.294     774.308
  C      481.591    -222.582     775.277
  C      480.235    -222.906     775.443
  N      479.421    -222.270     776.360
  N      482.414    -221.660     775.906
  C      483.607    -221.868     775.363
  N      483.581    -222.822     774.377
  O      490.292    -224.601     776.424
  O      489.093    -223.342     778.380
  H      486.566    -222.499     771.104
  H      488.360    -223.462     779.003
  H      480.026    -225.247     773.152
  H      484.522    -221.374     775.688
  H      484.343    -224.256     773.119
  H      484.819    -221.569     772.331
  H      486.263    -221.108     774.217
  H      487.531    -223.866     773.686
  H      488.773    -222.679     775.371
  H      478.425    -222.424     776.274
  H      479.792    -221.471     776.849
  H      487.299    -222.116     776.178
  P      487.700    -220.094     771.980
  C      486.211    -219.075     770.137
  O      486.681    -220.279     770.750
  O      489.055    -219.577     771.621
  O      486.896    -219.118     772.971
  H      487.069    -218.191     772.728
  H      485.544    -219.319     769.337
  H      487.043    -218.522     769.753
  H      485.695    -218.483     770.863

 6  7  8  9  10  11  12  13  14  15  25  28  32  33  34  35 0
 6-311+G(2d,p)
 ****
 36  39  40 0
 6-311+G(2d,p)
 ****
 1  2  3  4  5  16  17  18  19  20  21  22  23  24 0
 3-21G
 ****
 26  27  29  30  31  37  38  41  42  43  44  45  46  47 0
 3-21G
 ****
 48 0
 3-21G
 ****


