%nproc=1
%NoSave
%Mem=1900MB
#P OB98/GEN NMR

erre ene a

0 1
  C      812.943     583.088     -40.464
  O      814.021     584.034     -40.445
  P      814.319     584.998     -39.184
  C      813.788     587.265     -40.299
  O      813.422     586.328     -39.301
  C      812.782     588.420     -40.399
  O      813.347     589.509     -41.188
  C      811.435     588.042     -41.026
  O      810.420     588.751     -40.294
  C      811.587     588.579     -42.442
  O      810.354     588.739     -43.133
  C      812.329     589.886     -42.149
  N      812.929     590.551     -43.320
  C      812.062     591.061     -44.286
  O      810.848     590.912     -44.202
  N      812.614     591.731     -45.363
  C      813.896     591.854     -45.464
  N      814.374     592.545     -46.547
  C      814.845     591.317     -44.471
  C      814.299     590.686     -43.432
  O      815.777     585.284     -38.990
  O      813.721     584.240     -37.909
  H      814.295     584.398     -37.138
  H      810.515     589.252     -43.939
  H      815.914     591.455     -44.580
  H      814.919     590.288     -42.642
  H      811.648     590.591     -41.650
  H      812.202     587.880     -43.026
  H      811.214     586.974     -40.973
  H      812.637     588.827     -39.383
  H      813.690     592.904     -47.202
  H      813.831     586.750     -41.268
  H      815.356     592.710     -46.717
  H      814.796     587.649     -40.085
  P      809.596     588.014     -39.137
  C      807.417     587.404     -40.433
  O      808.610     586.953     -39.839
  O      808.562     589.159     -38.685
  O      810.399     587.532     -37.970
  H      808.309     588.995     -37.756
  H      807.285     586.914     -41.408
  H      807.401     588.496     -40.578
  H      806.572     587.117     -39.786
  H      812.943     582.566     -41.398
  H      812.013     583.604     -40.344
  H      813.068     582.388     -39.664

 3  4  5  6  7  8  9  10  11  12  13  24  27  28  29  30  32 0
 6-311+G(2d,p)
 ****
 34  35 0
 6-311+G(2d,p)
 ****
 1  2  14  15  16  17  18  19  20  21  22  23  25  26 0
 3-21G
 ****
 31  33  36  37  38  39  40  41  42  43  44  45  46 0
 3-21G
 ****


