%nproc=1
%NoSave
%Mem=1900MB
#P OB98/GEN NMR

erre ene a

0 1
  C      245.263    -181.319     354.206
  O      246.474    -181.284     353.426
  P      246.744    -182.449     352.349
  C      246.262    -181.090     350.164
  O      245.876    -182.150     351.032
  C      245.304    -181.014     348.974
  O      244.002    -180.548     349.393
  C      245.736    -180.048     347.879
  O      246.774    -180.588     347.080
  C      244.429    -179.842     347.121
  O      244.203    -180.912     346.186
  C      243.393    -179.887     348.264
  N      242.889    -178.565     348.621
  C      241.533    -178.480     348.920
  O      240.763    -179.438     348.841
  N      241.078    -177.241     349.285
  C      241.811    -176.091     349.310
  O      241.345    -175.003     349.625
  C      243.222    -176.227     348.903
  C      243.683    -177.438     348.577
  O      245.952    -183.686     352.992
  O      248.182    -182.799     352.121
  H      244.842    -180.785     345.459
  H      246.370    -184.524     352.712
  H      240.102    -177.166     349.536
  H      243.831    -175.334     348.887
  H      244.721    -177.552     348.274
  H      242.542    -180.516     347.973
  H      244.421    -178.908     346.552
  H      246.046    -179.095     348.326
  H      245.183    -182.026     348.566
  H      247.276    -181.279     349.798
  H      246.261    -180.150     350.727
  P      248.280    -180.190     347.480
  C      248.839    -182.685     348.024
  O      248.775    -181.347     348.472
  O      248.019    -178.918     348.421
  O      249.151    -179.918     346.295
  H      247.186    -179.001     348.924
  H      249.102    -182.744     346.963
  H      247.869    -183.168     348.186
  H      249.597    -183.212     348.610
  H      245.241    -180.479     354.868
  H      245.232    -182.224     354.777
  H      244.417    -181.281     353.553

 3  4  5  6  7  8  9  10  11  12  13  23  28  29  30  31  32 0
 6-311+G(2d,p)
 ****
 33  34 0
 6-311+G(2d,p)
 ****
 1  2  14  15  16  17  18  19  20  21  22  24  25  26 0
 3-21G
 ****
 27  35  36  37  38  39  40  41  42  43  44  45 0
 3-21G
 ****


