%nproc=1
%NoSave
%Mem=1900MB
#P OB98/GEN NMR

erre ene a

0 1
  C       -6.021     122.755     137.362
  O       -5.896     123.340     138.646
  P       -7.254     123.580     139.472
  C       -6.916     121.322     140.739
  O       -7.758     122.133     139.936
  C       -7.606     121.026     142.072
  O       -7.640     122.210     142.893
  C       -9.049     120.559     141.939
  O       -9.098     119.177     141.636
  C       -9.609     120.908     143.313
  O       -9.261     119.900     144.281
  C       -8.899     122.234     143.620
  N      -12.854     125.136     144.836
  C      -12.466     123.907     145.336
  N      -13.220     123.402     146.336
  N      -11.434     123.237     144.898
  C      -10.783     123.858     143.887
  C      -11.077     125.065     143.296
  C      -12.191     125.819     143.826
  O      -12.515     126.952     143.485
  N      -10.202     125.356     142.284
  C       -9.362     124.341     142.284
  N       -9.657     123.416     143.251
  O       -8.294     124.013     138.340
  O       -7.156     124.582     140.579
  H       -8.306     119.949     144.467
  H       -8.393     124.985     138.314
  H      -13.648     125.613     145.225
  H       -8.516     124.242     141.622
  H       -8.654     122.334     144.684
  H      -10.700     120.974     143.309
  H      -14.043     123.849     146.708
  H       -9.570     121.141     141.170
  H      -12.953     122.500     146.713
  H       -7.006     120.273     142.599
  H       -5.979     121.852     140.928
  H       -6.696     120.393     140.204
  P      -10.291     118.667     140.692
  C       -8.656     118.345     138.703
  O       -9.847     118.940     139.179
  O      -11.450     119.740     140.954
  O      -10.759     117.281     140.982
  H      -12.318     119.296     140.927
  H       -8.756     118.170     137.629
  H       -8.450     117.394     139.200
  H       -7.820     119.029     138.874
  H       -5.051     122.650     136.922
  H       -6.628     123.381     136.742
  H       -6.478     121.792     137.452

 3  4  5  6  7  8  9  10  11  12  23  26  30  31 0
 6-311+G(2d,p)
 ****
 33  35  36  37  38 0
 6-311+G(2d,p)
 ****
 1  2  13  14  15  16  17  18  19  20  21  22  24  25 0
 3-21G
 ****
 27  28  29  32  34  39  40  41  42  43  44  45  46  47  48  49 0
 3-21G
 ****


