%nproc=1
%NoSave
%Mem=1900MB
#P OB98/GEN NMR

erre ene a

0 1
  C     -152.616      88.211     189.159
  O     -151.315      88.230     188.592
  P     -150.848      89.425     187.630
  C     -148.733      90.877     187.450
  O     -149.353      89.774     188.098
  C     -147.464      91.279     188.197
  O     -147.824      91.636     189.552
  C     -146.400      90.189     188.338
  O     -145.533      90.063     187.221
  C     -145.610      90.721     189.529
  O     -144.723      91.768     189.096
  C     -146.714      91.296     190.420
  N     -147.161      90.449     195.446
  C     -146.699      91.507     194.744
  N     -146.595      91.650     193.406
  C     -147.071      90.562     192.778
  C     -147.577      89.409     193.356
  C     -147.614      89.373     194.760
  N     -148.106      88.300     195.472
  N     -147.951      88.501     192.384
  C     -147.687      89.103     191.245
  N     -147.162      90.353     191.430
  O     -151.793      90.574     187.568
  O     -150.625      88.725     186.211
  H     -144.002      91.340     188.595
  H     -150.598      89.403     185.506
  H     -146.364      92.355     195.338
  H     -147.854      88.676     190.267
  H     -146.407      92.216     190.930
  H     -144.991      89.955     190.004
  H     -146.849      89.226     188.605
  H     -147.046      92.171     187.713
  H     -149.436      91.720     187.456
  H     -148.214      88.415     196.467
  H     -148.591      87.574     194.963
  H     -148.516      90.618     186.411
  P     -144.667      88.711     187.117
  C     -143.343      87.803     185.047
  O     -144.512      88.418     185.547
  O     -145.185      87.578     187.932
  O     -143.203      89.194     187.548
  H     -142.769      89.805     186.931
  H     -143.504      87.549     183.997
  H     -143.119      86.886     185.598
  H     -142.498      88.493     185.118
  H     -152.728      87.336     189.765
  H     -153.346      88.199     188.377
  H     -152.755      89.084     189.763

 3  4  5  6  7  8  9  10  11  12  22  25  29  30  31  32 0
 6-311+G(2d,p)
 ****
 33  36  37 0
 6-311+G(2d,p)
 ****
 1  2  13  14  15  16  17  18  19  20  21  23  24  26 0
 3-21G
 ****
 27  28  34  35  38  39  40  41  42  43  44  45  46  47  48 0
 3-21G
 ****


