%nproc=1
%NoSave
%Mem=1900MB
#P OB98/GEN NMR

erre ene a

0 1
  C     -132.034     442.883    -241.363
  O     -132.469     443.761    -240.315
  P     -131.522     444.228    -239.102
  C     -132.914     446.364    -238.690
  O     -132.349     445.193    -238.117
  C     -134.101     446.879    -237.875
  O     -135.259     446.005    -238.060
  C     -133.846     446.980    -236.356
  O     -134.498     448.168    -235.907
  C     -134.536     445.724    -235.834
  O     -134.814     445.766    -234.448
  C     -135.773     445.714    -236.741
  N     -136.542     444.471    -236.746
  C     -137.940     444.571    -236.748
  O     -138.510     445.666    -236.688
  N     -138.680     443.415    -236.790
  C     -138.090     442.263    -236.824
  N     -138.881     441.154    -236.878
  C     -136.621     442.113    -236.802
  C     -135.919     443.243    -236.765
  O     -130.222     444.818    -239.554
  O     -131.266     442.909    -238.228
  H     -130.356     442.930    -237.873
  H     -135.364     446.552    -234.271
  H     -136.167     441.131    -236.836
  H     -134.829     443.216    -236.777
  H     -136.428     446.548    -236.460
  H     -133.891     444.866    -236.024
  H     -132.782     447.046    -236.095
  H     -134.389     447.860    -238.274
  H     -139.886     441.301    -236.908
  H     -133.253     446.122    -239.701
  H     -138.519     440.210    -236.921
  H     -132.135     447.134    -238.761
  P     -133.711     449.206    -234.977
  C     -135.156     451.170    -235.908
  O     -134.654     450.491    -234.769
  O     -132.604     449.774    -235.979
  O     -133.060     448.640    -233.749
  H     -131.829     450.091    -235.466
  H     -136.217     451.395    -235.749
  H     -135.048     450.588    -236.823
  H     -134.610     452.117    -236.020
  H     -132.839     442.721    -242.049
  H     -131.730     441.948    -240.942
  H     -131.208     443.326    -241.880

 3  4  5  6  7  8  9  10  11  12  13  24  27  28  29  30  32 0
 6-311+G(2d,p)
 ****
 34  35 0
 6-311+G(2d,p)
 ****
 1  2  14  15  16  17  18  19  20  21  22  23  25  26 0
 3-21G
 ****
 31  33  36  37  38  39  40  41  42  43  44  45  46 0
 3-21G
 ****


