%nproc=1
%NoSave
%Mem=1900MB
#P OB98/GEN NMR

erre ene a

0 1
  C      -90.437     234.092      85.610
  O      -90.575     235.487      85.825
  P      -90.221     236.472      84.605
  C      -88.126     236.794      83.083
  O      -88.658     236.277      84.293
  C      -86.879     236.015      82.666
  O      -87.251     234.621      82.468
  C      -86.219     236.493      81.369
  O      -84.809     236.260      81.504
  C      -86.792     235.555      80.322
  O      -85.990     235.484      79.146
  C      -86.869     234.257      81.123
  N      -87.531     229.844      78.728
  C      -86.359     230.513      79.047
  N      -85.209     229.881      78.735
  N      -86.325     231.688      79.622
  C      -87.559     232.185      79.891
  C      -88.786     231.636      79.590
  C      -88.808     230.318      78.990
  O      -89.818     229.656      78.770
  N      -89.811     232.480      79.935
  C      -89.208     233.495      80.518
  N      -87.847     233.343      80.558
  O      -90.292     237.918      85.286
  O      -91.104     236.361      83.399
  H      -85.653     236.384      78.957
  H      -91.174     238.324      85.160
  H      -87.493     228.930      78.307
  H      -89.698     234.364      80.933
  H      -85.911     233.731      81.165
  H      -87.792     235.898      80.025
  H      -85.161     228.966      78.317
  H      -86.409     237.546      81.143
  H      -84.335     230.340      78.986
  H      -86.156     236.040      83.498
  H      -87.844     237.841      83.240
  H      -88.893     236.754      82.298
  P      -83.837     237.539      81.522
  C      -83.279     239.491      79.915
  O      -84.099     238.368      80.181
  O      -82.390     236.885      81.277
  O      -83.855     238.316      82.797
  H      -81.714     237.406      81.743
  H      -83.298     239.689      78.835
  H      -82.243     239.313      80.219
  H      -83.671     240.362      80.446
  H      -90.705     233.565      86.502
  H      -89.422     233.869      85.356
  H      -91.080     233.789      84.810

 3  4  5  6  7  8  9  10  11  12  23  26  30  31 0
 6-311+G(2d,p)
 ****
 33  35  36  37  38 0
 6-311+G(2d,p)
 ****
 1  2  13  14  15  16  17  18  19  20  21  22  24  25 0
 3-21G
 ****
 27  28  29  32  34  39  40  41  42  43  44  45  46  47  48  49 0
 3-21G
 ****


