%nproc=1
%NoSave
%Mem=1900MB
#P OB98/GEN NMR

erre ene a

0 1
  C     -162.576       4.897     154.344
  O     -161.309       5.297     153.849
  P     -160.641       4.375     152.716
  C     -158.303       3.451     153.402
  O     -159.715       3.302     153.466
  C     -157.813       4.343     154.548
  O     -158.237       3.792     155.816
  C     -156.298       4.475     154.642
  O     -155.795       5.351     153.645
  C     -156.156       4.986     156.077
  O     -156.444       6.391     156.127
  C     -157.247       4.188     156.812
  N     -154.833       2.413     160.963
  C     -155.162       3.666     160.581
  N     -155.779       4.064     159.455
  C     -156.084       3.002     158.680
  C     -155.788       1.673     158.925
  C     -155.133       1.385     160.133
  N     -154.797       0.102     160.520
  N     -156.230       0.871     157.887
  C     -156.787       1.705     157.036
  N     -156.734       3.004     157.469
  O     -159.581       5.355     152.024
  O     -161.610       3.799     151.721
  H     -155.684       6.856     155.738
  H     -159.508       5.165     151.066
  H     -154.889       4.456     161.277
  H     -157.241       1.415     156.093
  H     -157.769       4.788     157.573
  H     -155.148       4.840     156.487
  H     -155.822       3.488     154.544
  H     -158.278       5.338     154.436
  H     -158.027       3.914     152.451
  H     -154.202      -0.001     161.330
  H     -154.897      -0.640     159.835
  H     -157.833       2.458     153.450
  P     -154.322       5.058     153.088
  C     -152.551       6.790     153.795
  O     -153.351       5.688     154.205
  O     -154.208       6.112     151.887
  O     -154.056       3.626     152.723
  H     -154.485       7.004     152.164
  H     -151.980       7.152     154.657
  H     -153.180       7.596     153.412
  H     -151.848       6.462     153.015
  H     -162.904       5.593     155.088
  H     -162.498       3.922     154.778
  H     -163.282       4.874     153.540

 3  4  5  6  7  8  9  10  11  12  22  25  29  30  31  32 0
 6-311+G(2d,p)
 ****
 33  36  37 0
 6-311+G(2d,p)
 ****
 1  2  13  14  15  16  17  18  19  20  21  23  24  26 0
 3-21G
 ****
 27  28  34  35  38  39  40  41  42  43  44  45  46  47  48 0
 3-21G
 ****


