%nproc=1
%NoSave
%Mem=1900MB
#P OB98/GEN NMR

erre ene a

0 1
  C     1000.540     287.649     498.896
  O     1001.129     287.714     497.595
  P     1002.149     286.555     497.169
  C     1003.928     287.438     498.847
  O     1003.617     287.121     497.495
  C     1005.315     286.921     499.208
  O     1005.295     285.484     499.338
  C     1006.393     287.224     498.151
  O     1006.894     288.542     498.250
  C     1007.461     286.189     498.531
  O     1008.248     286.711     499.617
  C     1006.620     284.988     499.011
  N     1008.929     281.144     496.643
  C     1009.399     281.980     497.643
  N     1010.642     281.746     498.098
  N     1008.690     282.962     498.149
  C     1007.449     283.064     497.629
  C     1006.884     282.311     496.619
  C     1007.686     281.242     496.044
  O     1007.338     280.527     495.113
  N     1005.600     282.699     496.385
  C     1005.358     283.673     497.249
  N     1006.479     283.946     498.001
  O     1002.074     286.573     495.582
  O     1001.832     285.201     497.719
  H     1008.339     287.678     499.466
  H     1002.327     285.689     495.215
  H     1009.506     280.390     496.302
  H     1004.425     284.188     497.363
  H     1007.037     284.549     499.909
  H     1008.150     285.969     497.716
  H     1011.173     280.930     497.840
  H     1006.022     286.989     497.142
  H     1010.981     282.320     498.865
  H     1005.602     287.354     500.175
  H     1003.195     286.954     499.507
  H     1003.876     288.513     498.984
  P     1006.358     289.582     497.141
  C     1007.170     288.258     495.060
  O     1007.348     289.379     495.896
  O     1006.781     291.009     497.748
  O     1004.890     289.485     496.854
  H     1006.203     291.699     497.404
  H     1006.110     288.016     494.921
  H     1007.692     287.392     495.475
  H     1007.591     288.484     494.070
  H      999.887     288.485     499.034
  H     1001.311     287.672     499.638
  H      999.982     286.741     498.990

 3  4  5  6  7  8  9  10  11  12  23  26  30  31  33  0
 6-311+G(2d,p)
 ****
 35  36  37  38 0
 6-311+G(2d,p)
 ****
 1  2  13  14  15  16  17  18  19  20  21  22  24  25  27  28  29 0
 3-21G
 ****
 32  34  39  40  41  42  43  44  45  46  47  48  49 0
 3-21G
 ****


