%nproc=1
%NoSave
%Mem=1900MB
#P OB98/GEN NMR

erre ene a

0 1
  C      372.901    1045.890     488.787
  O      374.126    1046.500     488.372
  P      374.228    1047.144     486.919
  C      375.940    1045.342     486.213
  O      375.632    1046.728     486.250
  C      377.323    1045.063     486.855
  O      378.364    1045.745     486.102
  C      377.396    1045.556     488.300
  O      377.871    1044.557     489.216
  C      378.230    1046.820     488.223
  O      378.884    1047.152     489.440
  C      379.138    1046.531     487.013
  N      379.634    1047.762     486.399
  C      380.753    1047.647     485.578
  O      381.371    1046.572     485.426
  N      381.184    1048.804     484.987
  C      380.673    1050.045     485.189
  O      381.114    1051.078     484.672
  C      379.528    1050.130     486.111
  C      379.063    1048.988     486.669
  O      373.888    1048.598     486.817
  O      373.180    1046.259     486.062
  H      378.233    1047.024     490.179
  H      372.719    1046.864     485.439
  H      381.984    1048.755     484.369
  H      379.108    1051.101     486.330
  H      378.237    1049.015     487.371
  H      380.022    1045.937     487.311
  H      377.571    1047.662     487.973
  H      376.393    1045.806     488.713
  H      377.484    1043.984     486.801
  H      375.966    1045.014     485.165
  H      375.132    1044.776     486.692
  P      377.121    1044.097     490.563
  C      378.861    1044.933     492.297
  O      378.213    1043.819     491.677
  O      376.094    1043.019     490.393
  O      376.398    1045.452     491.062
  H      375.506    1045.246     491.392
  H      379.784    1044.591     492.735
  H      378.208    1045.321     493.090
  H      379.072    1045.721     491.572
  H      373.010    1045.513     489.782
  H      372.661    1045.085     488.124
  H      372.116    1046.616     488.765

 3  4  5  6  7  8  9  10  11  12  13  23  28  29  30  31  32 0
 6-311+G(2d,p)
 ****
 33  34 0
 6-311+G(2d,p)
 ****
 1  2  14  15  16  17  18  19  20  21  22  24  25  26  27 0
 3-21G
 ****
 35  36  37  38  39  40  41  42  43  44  45 0
 3-21G
 ****


