%nproc=1
%NoSave
%Mem=1900MB
#P OB98/GEN NMR

erre ene a

0 1
  C       -8.921      71.044      33.890
  O      -10.032      70.445      34.535
  P      -11.440      70.445      33.760
  C      -12.175      69.509      31.442
  O      -11.127      70.034      32.240
  C      -12.252      70.248      30.104
  O      -12.800      71.571      30.338
  C      -10.907      70.434      29.393
  O      -11.170      70.403      27.985
  C      -10.493      71.834      29.803
  O       -9.544      72.410      28.912
  C      -11.848      72.532      29.831
  N       -9.970      77.191      30.411
  C       -9.673      76.229      29.462
  N       -8.795      76.587      28.501
  N      -10.192      75.029      29.456
  C      -11.065      74.823      30.471
  C      -11.410      75.679      31.489
  C      -10.860      77.015      31.463
  O      -11.160      77.925      32.231
  N      -12.259      75.082      32.383
  C      -12.490      73.895      31.860
  N      -11.825      73.709      30.678
  O      -11.794      72.000      33.666
  O      -12.530      69.644      34.397
  H       -9.123      73.165      29.371
  H      -12.368      72.276      34.408
  H       -9.553      78.105      30.353
  H      -13.127      73.137      32.286
  H      -12.179      72.848      28.833
  H      -10.043      71.808      30.803
  H       -8.381      77.503      28.427
  H      -10.164      69.677      29.659
  H       -8.586      75.912      27.775
  H      -12.957      69.714      29.455
  H      -13.124      69.645      31.970
  H      -12.016      68.437      31.286
  P       -9.944      70.097      26.999
  C       -8.180      68.214      26.790
  O       -9.126      68.867      27.612
  O       -8.970      71.346      27.246
  O      -10.312      69.989      25.555
  H       -8.491      71.555      26.423
  H       -7.454      67.703      27.427
  H       -7.648      68.920      26.146
  H       -8.689      67.471      26.171
  H       -8.060      70.969      34.520
  H       -9.134      72.075      33.697
  H       -8.731      70.540      32.965

 3  4  5  6  7  8  9  10  11  12  23  26  30  31 0
 6-311+G(2d,p)
 ****
 33  35  36  37  38 0
 6-311+G(2d,p)
 ****
 1  2  13  14  15  16  17  18  19  20  21  22  24  25 0
 3-21G
 ****
 27  28  29  32  34  39  40  41  42  43  44  45  46  47  48  49 0
 3-21G
 ****


