%nproc=1
%NoSave
%Mem=1900MB
#P OB98/GEN NMR

erre ene a

0 1
  C      -80.569    -178.974     542.552
  O      -80.046    -179.080     543.860
  P      -80.748    -179.925     545.021
  C      -80.285    -182.377     544.289
  O      -81.240    -181.322     544.394
  C      -80.711    -183.652     545.033
  O      -80.555    -183.449     546.454
  C      -82.199    -183.925     544.795
  O      -82.621    -184.607     543.623
  C      -82.704    -184.527     546.102
  O      -82.773    -185.955     546.063
  C      -81.668    -184.065     547.128
  N      -84.764    -183.423     551.090
  C      -84.290    -184.600     550.543
  N      -84.864    -185.736     550.989
  N      -83.355    -184.645     549.625
  C      -82.948    -183.422     549.209
  C      -83.332    -182.186     549.691
  C      -84.335    -182.155     550.728
  O      -84.845    -181.131     551.186
  N      -82.766    -181.162     548.979
  C      -82.068    -181.769     548.044
  N      -82.176    -183.138     548.116
  O      -81.675    -179.182     545.929
  O      -79.470    -180.377     545.897
  H      -81.864    -186.296     546.028
  H      -79.753    -180.401     546.835
  H      -85.538    -183.449     551.741
  H      -81.490    -181.268     547.272
  H      -81.259    -184.922     547.678
  H      -83.724    -184.173     546.320
  H      -85.683    -185.733     551.580
  H      -82.693    -182.953     544.724
  H      -84.666    -186.595     550.489
  H      -80.062    -184.493     544.779
  H      -79.334    -181.998     544.681
  H      -80.125    -182.613     543.234
  P      -84.044    -184.474     542.909
  C      -83.249    -182.782     541.162
  O      -84.138    -183.025     542.240
  O      -85.089    -184.377     544.122
  O      -84.401    -185.610     542.008
  H      -85.972    -184.644     543.815
  H      -83.188    -181.707     540.990
  H      -83.634    -183.266     540.256
  H      -82.252    -183.172     541.385
  H      -79.925    -178.359     541.959
  H      -81.544    -178.535     542.592
  H      -80.634    -179.948     542.114

 3  4  5  6  7  8  9  10  11  12  23  26  30  31 0
 6-311+G(2d,p)
 ****
 33  35  36  37  38 0
 6-311+G(2d,p)
 ****
 1  2  13  14  15  16  17  18  19  20  21  22  24  25 0
 3-21G
 ****
 27  28  29  32  34  39  40  41  42  43  44  45  46  47  48  49 0
 3-21G
 ****


