%nproc=1
%NoSave
%Mem=1900MB
#P OB98/GEN NMR

erre ene a

0 1
  C      127.389     301.075     -29.436
  O      128.246     302.017     -30.058
  P      128.906     303.218     -29.217
  C      126.923     304.840     -29.562
  O      127.663     304.048     -28.640
  C      126.501     306.148     -28.900
  O      125.721     305.866     -27.722
  C      127.659     307.023     -28.431
  O      128.268     307.692     -29.522
  C      126.951     307.918     -27.421
  O      126.244     308.972     -28.094
  C      125.944     306.940     -26.778
  N      126.398     306.423     -25.491
  C      126.576     307.361     -24.470
  O      126.352     308.555     -24.659
  N      126.979     306.919     -23.234
  C      127.206     305.655     -23.039
  N      127.535     305.265     -21.777
  C      127.085     304.640     -24.104
  C      126.674     305.088     -25.289
  O      129.907     304.031     -29.964
  O      129.491     302.517     -27.909
  H      125.770     309.475     -27.406
  H      130.417     302.187     -28.018
  H      127.298     303.604     -23.895
  H      126.540     304.404     -26.117
  H      124.975     307.430     -26.640
  H      127.630     308.380     -26.696
  H      128.412     306.412     -27.918
  H      125.868     306.701     -29.608
  H      127.437     305.963     -21.047
  H      126.029     304.283     -29.859
  H      127.446     304.302     -21.482
  H      127.534     305.026     -30.451
  P      129.869     307.784     -29.533
  C      129.759     310.022     -28.226
  O      130.265     308.698     -28.274
  O      130.174     308.701     -30.807
  O      130.561     306.462     -29.607
  H      130.455     308.152     -31.563
  H      129.917     310.414     -27.219
  H      128.688     310.036     -28.446
  H      130.296     310.651     -28.938
  H      127.057     300.362     -30.161
  H      126.543     301.582     -29.021
  H      127.920     300.570     -28.656

 3  4  5  6  7  8  9  10  11  12  13  23  27  28  29  30  32 0
 6-311+G(2d,p)
 ****
 34  35 0
 6-311+G(2d,p)
 ****
 1  2  14  15  16  17  18  19  20  21  22  24  25  26 0
 3-21G
 ****
 31  33  36  37  38  39  40  41  42  43  44  45  46 0
 3-21G
 ****


