%nproc=1
%NoSave
%Mem=1900MB
#P OB98/GEN NMR

erre ene a

0 1
  C      245.822     430.657     537.952
  O      246.470     431.229     539.070
  H      244.738     430.765     538.041
  H      246.155     431.176     537.050
  H      246.086     429.599     537.868
  P      246.030     430.669     540.510
  C      247.592     428.602     540.444
  O      246.256     429.079     540.468
  C      247.720     427.360     541.316
  O      247.531     427.702     542.702
  C      246.698     426.268     541.024
  O      247.045     425.506     539.878
  C      246.801     425.438     542.301
  O      247.947     424.570     542.224
  C      247.028     426.514     543.375
  N      244.117     425.441     547.471
  C      245.269     424.894     547.012
  N      245.979     425.221     545.917
  C      245.403     426.243     545.258
  C      244.232     426.900     545.602
  C      243.574     426.458     546.764
  N      242.393     427.012     547.209
  N      243.953     427.908     544.702
  C      244.941     427.859     543.826
  N      245.836     426.865     544.117
  O      244.433     430.816     540.496
  O      246.634     431.372     541.680
  H      247.928     424.008     543.022
  H      244.131     431.050     541.394
  H      245.676     424.089     547.617
  H      245.043     428.524     542.979
  H      247.798     426.207     544.092
  H      245.925     424.813     542.479
  H      245.688     426.681     540.944
  H      248.743     426.969     541.206
  H      248.264     429.379     540.824
  H      242.078     426.791     548.142
  H      241.997     427.779     546.681
  H      247.867     428.372     539.409
  P      245.903     424.576     539.235
  C      245.172     426.264     537.403
  O      244.828     425.591     538.608
  O      245.148     423.987     540.517
  O      246.395     423.499     538.332
  H      244.720     423.141     540.290
  H      244.365     426.901     537.108
  H      245.358     425.544     536.633
  H      246.052     426.852     537.562

 6  7  8  9  10  11  12  13  14  15  25  28  32  33  34  35 0
 6-311+G(2d,p)
 ****
 36  39  40 0
 6-311+G(2d,p)
 ****
 1  2  3  4  5  16  17  18  19  20  21  22  23  24 0
 3-21G
 ****
 26  27  29  30  31  37  38  41  42  43  44  45  46  47  48 0
 3-21G
 ****


