%nproc=1
%NoSave
%Mem=1900MB
#P OB98/GEN NMR

erre ene a

0 1
  C      215.698     -22.300     -71.119
  O      214.453     -22.054     -71.760
  P      214.189     -20.594     -72.370
  C      213.546     -18.326     -71.284
  O      214.244     -19.556     -71.144
  C      214.006     -17.306     -70.243
  O      215.437     -17.094     -70.391
  C      213.326     -15.936     -70.350
  O      213.221     -15.410     -69.019
  C      214.339     -15.112     -71.129
  O      214.152     -13.710     -70.939
  C      215.642     -15.670     -70.556
  N      219.703     -12.680     -71.426
  C      218.781     -12.677     -70.442
  N      217.727     -13.505     -70.276
  C      217.677     -14.412     -71.269
  C      218.525     -14.517     -72.359
  C      219.590     -13.599     -72.418
  N      220.539     -13.607     -73.416
  N      218.138     -15.555     -73.182
  C      217.072     -16.070     -72.597
  N      216.772     -15.428     -71.430
  O      212.634     -20.649     -72.748
  O      215.023     -20.237     -73.554
  H      214.689     -13.241     -71.606
  H      212.526     -20.633     -73.720
  H      218.904     -11.912     -69.683
  H      216.489     -16.894     -72.980
  H      215.877     -15.247     -69.572
  H      214.250     -15.327     -72.196
  H      212.346     -15.961     -70.829
  H      213.850     -17.736     -69.247
  H      212.476     -18.510     -71.144
  H      221.341     -13.006     -73.318
  H      220.571     -14.397     -74.052
  H      213.701     -17.932     -72.296
  P      211.838     -14.690     -68.635
  C      210.587     -12.572     -69.454
  O      211.627     -13.499     -69.684
  O      212.188     -13.933     -67.266
  O      210.687     -15.629     -68.468
  H      211.380     -13.841     -66.723
  H      210.898     -11.592     -69.825
  H      210.341     -12.489     -68.389
  H      209.692     -12.892     -70.000
  H      215.724     -23.310     -70.767
  H      215.812     -21.631     -70.292
  H      216.495     -22.144     -71.816

 3  4  5  6  7  8  9  10  11  12  22  25  29  30  31  32 0
 6-311+G(2d,p)
 ****
 33  36  37 0
 6-311+G(2d,p)
 ****
 1  2  13  14  15  16  17  18  19  20  21  23  24  26 0
 3-21G
 ****
 27  28  34  35  38  39  40  41  42  43  44  45  46  47  48 0
 3-21G
 ****


