%nproc=1
%NoSave
%Mem=1900MB
#P OB98/GEN NMR

erre ene a

0 1
  C       -7.240    -161.764     -17.785
  O       -7.504    -160.364     -17.751
  P       -8.131    -159.735     -16.419
  C       -5.960    -158.644     -15.369
  O       -7.245    -158.499     -15.933
  C       -5.072    -157.472     -15.820
  O       -4.640    -157.668     -17.184
  C       -5.784    -156.123     -15.766
  O       -5.693    -155.526     -14.486
  C       -5.063    -155.346     -16.849
  O       -3.787    -154.885     -16.370
  C       -4.872    -156.438     -17.928
  N       -5.972    -156.669     -18.889
  C       -5.702    -157.256     -20.124
  O       -4.583    -157.605     -20.493
  N       -6.780    -157.450     -20.946
  C       -8.090    -157.283     -20.610
  O       -9.019    -157.529     -21.369
  C       -8.331    -156.805     -19.245
  C       -7.286    -156.513     -18.468
  O       -7.867    -160.854     -15.309
  O       -9.583    -159.384     -16.526
  H       -3.228    -155.670     -16.237
  H       -8.712    -161.215     -14.983
  H       -6.594    -157.806     -21.870
  H       -9.359    -156.704     -18.919
  H       -7.454    -156.157     -17.454
  H       -3.971    -156.241     -18.522
  H       -5.619    -154.456     -17.134
  H       -6.829    -156.234     -16.072
  H       -4.181    -157.448     -15.182
  H       -5.507    -159.591     -15.669
  H       -6.039    -158.662     -14.277
  P       -6.856    -154.548     -13.978
  C       -7.608    -156.463     -12.446
  O       -7.272    -155.091     -12.526
  O       -7.981    -154.319     -14.929
  O       -6.077    -153.190     -13.628
  H       -6.124    -152.559     -14.383
  H       -7.714    -156.737     -11.393
  H       -6.822    -157.076     -12.895
  H       -8.558    -156.642     -12.957
  H       -6.826    -162.026     -18.736
  H       -8.152    -162.303     -17.633
  H       -6.544    -162.015     -17.012

 3  4  5  6  7  8  9  10  11  12  13  23  28  29  30  31  32 0
 6-311+G(2d,p)
 ****
 33  34 0
 6-311+G(2d,p)
 ****
 1  2  14  15  16  17  18  19  20  21  22  24  25  26  27 0
 3-21G
 ****
 35  36  37  38  39  40  41  42  43  44  45 0
 3-21G
 ****


