%nproc=1
%NoSave
%Mem=1900MB
#P OB98/GEN NMR

erre ene a

0 1
  C     1179.695     708.199    -474.904
  O     1179.962     707.190    -473.954
  H     1178.727     707.996    -475.372
  H     1180.461     708.205    -475.690
  H     1179.653     709.180    -474.427
  P     1181.365     707.217    -473.187
  C     1183.826     706.681    -473.812
  O     1182.492     706.837    -474.272
  C     1184.825     707.091    -474.891
  O     1184.712     706.217    -476.030
  C     1184.606     708.501    -475.442
  O     1185.068     709.473    -474.518
  C     1185.395     708.423    -476.746
  O     1186.800     708.547    -476.508
  C     1185.039     706.986    -477.210
  N     1183.940     706.954    -478.177
  C     1184.297     707.142    -479.516
  O     1185.460     707.364    -479.839
  N     1183.297     707.117    -480.464
  C     1182.081     706.866    -480.109
  N     1181.129     706.834    -481.107
  C     1181.661     706.598    -478.725
  C     1182.636     706.676    -477.819
  O     1181.450     706.422    -471.916
  O     1181.634     708.777    -472.918
  H     1187.223     708.667    -477.372
  H     1181.315     709.032    -472.040
  H     1180.639     706.392    -478.469
  H     1182.427     706.493    -476.764
  H     1185.917     706.510    -477.676
  H     1185.111     709.203    -477.442
  H     1183.555     708.667    -475.687
  H     1185.833     706.981    -474.488
  H     1181.473     707.015    -482.052
  H     1183.950     705.627    -473.563
  H     1180.187     706.494    -480.982
  H     1183.987     707.276    -472.900
  P     1184.690     711.021    -474.666
  C     1185.243     712.875    -476.369
  O     1185.551     711.560    -475.900
  O     1184.797     711.816    -473.408
  O     1183.210     710.991    -475.271
  H     1182.544     710.778    -474.570
  H     1185.883     713.119    -477.191
  H     1185.394     713.580    -475.578
  H     1184.222     712.910    -476.688

 6  7  8  9  10  11  12  13  14  15  16  26  30  31  32  33  35 0
 6-311+G(2d,p)
 ****
 37  38 0
 6-311+G(2d,p)
 ****
 1  2  3  4  5  17  18  19  20  21  22  23  24  25 0
 3-21G
 ****
 27  28  29  34  36  39  40  41  42  43  44  45  46 0
 3-21G
 ****


