%nproc=1
%NoSave
%Mem=1900MB
#P OB98/GEN NMR

erre ene a

0 1
  C      174.580     314.859    -113.136
  O      175.902     314.757    -113.635
  P      177.128     315.474    -112.885
  C      179.611     314.826    -113.080
  O      178.287     314.363    -112.834
  C      180.587     313.647    -113.096
  O      180.585     313.033    -111.783
  C      180.249     312.521    -114.075
  O      180.702     312.731    -115.404
  C      181.033     311.366    -113.451
  O      182.424     311.484    -113.804
  C      180.840     311.613    -111.952
  N      178.622     307.004    -111.746
  C      179.750     307.440    -112.359
  N      180.257     308.687    -112.387
  C      179.509     309.522    -111.645
  C      178.341     309.225    -110.948
  C      177.898     307.892    -111.023
  N      176.762     307.442    -110.373
  N      177.848     310.351    -110.322
  C      178.705     311.302    -110.611
  N      179.733     310.856    -111.400
  O      176.774     316.102    -111.580
  O      177.686     316.524    -113.954
  H      182.794     312.216    -113.268
  H      178.253     317.186    -113.505
  H      180.302     306.690    -112.913
  H      178.630     312.326    -110.284
  H      181.739     311.373    -111.370
  H      180.698     310.381    -113.800
  H      179.176     312.278    -114.051
  H      181.599     314.038    -113.289
  H      179.893     315.511    -112.270
  H      176.593     306.452    -110.374
  H      176.317     308.062    -109.706
  H      179.636     315.378    -114.024
  P      179.861     312.025    -116.587
  C      178.683     313.004    -118.716
  O      179.660     313.155    -117.703
  O      178.619     311.335    -116.137
  O      180.942     311.047    -117.253
  H      181.682     311.493    -117.708
  H      178.596     313.945    -119.264
  H      177.710     312.761    -118.286
  H      178.990     312.219    -119.410
  H      173.915     314.315    -113.774
  H      174.287     315.888    -113.109
  H      174.539     314.451    -112.148

 3  4  5  6  7  8  9  10  11  12  22  25  29  30  31  32 0
 6-311+G(2d,p)
 ****
 33  36  37 0
 6-311+G(2d,p)
 ****
 1  2  13  14  15  16  17  18  19  20  21  23  24  26 0
 3-21G
 ****
 27  28  34  35  38  39  40  41  42  43  44  45  46  47  48 0
 3-21G
 ****


