%nproc=1
%NoSave
%Mem=1900MB
#P OB98/GEN NMR

erre ene a

0 1
  C     -186.926      99.672     163.918
  O     -186.548      99.321     162.599
  H     -187.554     100.566     163.876
  H     -186.037      99.891     164.521
  H     -187.497      98.857     164.374
  P     -185.584      98.044     162.440
  C     -183.234      97.511     163.390
  O     -184.188      98.517     163.074
  C     -181.891      98.139     163.756
  O     -181.319      98.795     162.610
  C     -181.968      99.191     164.857
  O     -181.959      98.576     166.135
  C     -180.683      99.969     164.605
  O     -179.571      99.265     165.193
  C     -180.567      99.947     163.072
  N     -179.306     104.470     160.984
  C     -178.596     103.600     161.742
  N     -179.010     102.447     162.308
  C     -180.303     102.210     162.018
  C     -181.152     103.007     161.262
  C     -180.604     104.184     160.724
  N     -181.331     105.069     159.954
  N     -182.412     102.448     161.183
  C     -182.307     101.302     161.828
  N     -181.061     101.129     162.385
  O     -185.521      97.446     161.075
  O     -186.170      97.078     163.579
  H     -178.789      99.843     165.100
  H     -186.391      97.589     164.380
  H     -177.557     103.871     161.917
  H     -183.091     100.559     161.909
  H     -179.527      99.809     162.745
  H     -180.699     100.966     165.051
  H     -182.827      99.863     164.721
  H     -181.206      97.327     164.041
  H     -183.105      96.829     162.539
  H     -180.918     105.976     159.776
  H     -182.326     104.916     159.875
  H     -183.628      96.934     164.236
  P     -183.037      98.978     167.258
  C     -183.788     101.231     168.246
  O     -182.752     100.526     167.573
  O     -183.073      98.069     168.435
  O     -184.428      99.025     166.468
  H     -185.176      99.001     167.099
  H     -183.487     102.246     168.401
  H     -183.979     100.768     169.191
  H     -184.678     101.210     167.652

 6  7  8  9  10  11  12  13  14  15  25  28  32  33  34  35 0
 6-311+G(2d,p)
 ****
 36  39  40 0
 6-311+G(2d,p)
 ****
 1  2  3  4  5  16  17  18  19  20  21  22  23  24 0
 3-21G
 ****
 26  27  29  30  31  37  38  41  42  43  44  45  46  47 0
 3-21G
 ****
 48 0
 3-21G
 ****


