%nproc=1
%NoSave
%Mem=1900MB
#P OB98/GEN NMR

erre ene a

0 1
  C     -899.390     953.416    -891.328
  O     -900.000     953.032    -892.548
  H     -899.960     954.268    -890.908
  H     -898.360     953.746    -891.498
  H     -899.420     952.580    -890.618
  P     -899.240     951.897    -893.378
  C     -896.930     951.905    -894.608
  O     -897.770     952.505    -893.628
  C     -896.160     952.987    -895.368
  O     -895.650     953.975    -894.428
  C     -894.940     952.495    -896.148
  O     -895.290     951.831    -897.358
  C     -894.220     953.792    -896.358
  O     -894.890     954.558    -897.388
  C     -894.380     954.485    -894.978
  N     -893.270     954.181    -894.058
  C     -892.690     955.263    -893.408
  O     -893.100     956.403    -893.598
  N     -891.640     955.037    -892.558
  C     -891.220     953.826    -892.348
  N     -890.150     953.659    -891.528
  C     -891.800     952.640    -893.028
  C     -892.820     952.905    -893.868
  O     -899.910     951.978    -894.838
  O     -899.250     950.518    -892.778
  H     -895.830     954.639    -897.118
  H     -899.420     951.404    -895.468
  H     -891.390     951.644    -892.838
  H     -893.310     952.047    -894.378
  H     -894.480     955.556    -895.078
  H     -893.190     953.662    -896.668
  H     -894.340     951.842    -895.508
  H     -896.860     953.519    -896.028
  H     -889.720     954.492    -891.138
  H     -897.560     951.346    -895.318
  H     -889.650     952.795    -891.418
  H     -896.220     951.217    -894.128
  P     -894.190     950.818    -897.978
  C     -891.880     951.080    -899.138
  O     -892.980     951.704    -898.518
  O     -894.930     950.309    -899.338
  O     -893.820     949.692    -897.058
  H     -894.670     949.370    -899.488
  H     -891.169     951.823    -899.435
  H     -892.215     950.542    -900.000
  H     -891.420     950.402    -898.450

 6  7  8  9  10  11  12  13  14  15  16  26  30  31  32  33  35 0
 6-311+G(2d,p)
 ****
 37  38 0
 6-311+G(2d,p)
 ****
 1  2  3  4  5  17  18  19  20  21  22  23  24  25 0
 3-21G
 ****
 27  28  29  34  36  39  40  41  42  43  44  45  46 0
 3-21G
 ****


