%nproc=1
%NoSave
%Mem=1900MB
#P OB98/GEN NMR

erre ene a

0 1
  C     -400.295    -140.182    -151.089
  O     -401.216    -139.846    -152.132
  P     -400.659    -138.868    -153.279
  C     -400.686    -136.766    -151.753
  O     -399.917    -137.638    -152.562
  C     -399.835    -136.177    -150.627
  O     -398.612    -135.593    -151.112
  C     -400.549    -135.074    -149.849
  O     -401.447    -135.644    -148.915
  C     -399.378    -134.356    -149.190
  O     -398.973    -135.012    -147.969
  C     -398.274    -134.474    -150.251
  N     -396.013    -129.934    -150.491
  C     -396.112    -130.825    -149.431
  N     -395.510    -130.455    -148.282
  N     -396.755    -131.962    -149.496
  C     -397.307    -132.197    -150.711
  C     -397.254    -131.409    -151.838
  C     -396.549    -130.154    -151.753
  O     -396.409    -129.345    -152.665
  N     -397.883    -132.011    -152.899
  C     -398.432    -133.092    -152.371
  N     -398.054    -133.289    -151.064
  O     -401.995    -138.217    -153.882
  O     -399.870    -139.576    -154.331
  H     -399.682    -134.917    -147.304
  H     -402.151    -138.563    -154.784
  H     -395.516    -129.071    -150.382
  H     -399.076    -133.782    -152.899
  H     -397.298    -134.708    -149.794
  H     -399.632    -133.331    -148.914
  H     -394.997    -129.599    -148.159
  H     -401.065    -134.398    -150.538
  H     -395.562    -131.093    -147.496
  H     -399.577    -137.000    -149.948
  H     -401.539    -137.303    -151.333
  H     -401.099    -135.971    -152.389
  P     -403.015    -135.616    -149.263
  C     -403.324    -133.980    -147.269
  O     -403.625    -134.277    -148.618
  O     -403.616    -136.793    -148.362
  O     -403.327    -135.827    -150.707
  H     -404.246    -137.320    -148.886
  H     -403.332    -132.894    -147.139
  H     -402.342    -134.361    -146.973
  H     -404.093    -134.420    -146.627
  H     -400.773    -140.833    -150.387
  H     -399.980    -139.289    -150.590
  H     -399.443    -140.674    -151.510

 3  4  5  6  7  8  9  10  11  12  23  26  30  31 0
 6-311+G(2d,p)
 ****
 33  35  36  37  38 0
 6-311+G(2d,p)
 ****
 1  2  13  14  15  16  17  18  19  20  21  22  24  25 0
 3-21G
 ****
 27  28  29  32  34  39  40  41  42  43  44  45  46  47  48  49 0
 3-21G
 ****


