%nproc=1
%NoSave
%Mem=1900MB
#P OB98/GEN NMR

erre ene a

0 1
  C       -5.594      15.739      -6.585
  O       -5.560      14.422      -6.067
  P       -4.245      13.526      -6.242
  C       -1.736      13.861      -5.639
  O       -2.992      14.456      -5.878
  C       -0.603      14.689      -6.260
  O       -0.647      14.495      -7.695
  C       -0.714      16.193      -6.040
  O        0.565      16.784      -6.283
  C       -1.676      16.598      -7.133
  O       -1.600      17.989      -7.432
  C       -1.285      15.647      -8.293
  N       -2.464      15.232      -9.074
  C       -3.209      16.243      -9.674
  O       -2.880      17.427      -9.640
  N       -4.391      15.856     -10.244
  C       -4.900      14.592     -10.222
  O       -6.072      14.323     -10.455
  C       -3.966      13.539      -9.792
  C       -2.816      13.904      -9.220
  O       -4.144      13.352      -7.829
  O       -4.282      12.212      -5.541
  H       -0.646      18.203      -7.549
  H       -4.540      12.504      -8.101
  H       -4.997      16.608     -10.551
  H       -4.275      12.509      -9.899
  H       -2.130      13.150      -8.845
  H       -0.576      16.125      -8.980
  H       -2.702      16.386      -6.805
  H       -1.079      16.476      -5.048
  H        0.361      14.315      -5.898
  H       -1.736      12.844      -6.041
  H       -1.559      13.768      -4.562
  P        0.926      18.138      -5.504
  C        0.996      18.653      -2.990
  O        0.309      17.989      -4.032
  O        0.598      19.408      -6.214
  O        2.502      17.993      -5.242
  H        2.884      18.868      -5.047
  H        0.278      18.924      -2.212
  H        1.488      19.561      -3.349
  H        1.743      17.979      -2.565
  H       -6.546      16.180      -6.375
  H       -5.440      15.710      -7.644
  H       -4.822      16.322      -6.128

 3  4  5  6  7  8  9  10  11  12  13  23  28  29  30  31  32 0
 6-311+G(2d,p)
 ****
 33  34 0
 6-311+G(2d,p)
 ****
 1  2  14  15  16  17  18  19  20  21  22  24  25  26  27 0
 3-21G
 ****
 35  36  37  38  39  40  41  42  43  44  45 0
 3-21G
 ****


