%nproc=1
%NoSave
%Mem=1900MB
#P OB98/GEN NMR

erre ene a

0 1
  C      488.535     276.098    -223.082
  O      489.947     275.856    -223.032
  P      490.923     277.122    -222.921
  C      490.924     277.958    -220.457
  O      490.370     278.079    -221.762
  C      491.407     279.324    -219.958
  O      490.348     280.307    -219.983
  C      491.925     279.298    -218.527
  O      493.273     278.859    -218.462
  C      491.845     280.774    -218.165
  O      492.983     281.477    -218.710
  C      490.557     281.214    -218.870
  N      487.007     284.037    -216.623
  C      488.037     284.407    -217.466
  N      488.133     285.724    -217.755
  N      488.900     283.562    -217.975
  C      488.671     282.280    -217.609
  C      487.682     281.790    -216.778
  C      486.751     282.731    -216.213
  O      485.823     282.466    -215.450
  N      487.782     280.433    -216.642
  C      488.808     280.091    -217.397
  N      489.392     281.184    -217.992
  O      490.586     277.949    -224.254
  O      492.373     276.777    -222.843
  H      492.853     282.420    -218.502
  H      491.361     278.468    -224.527
  H      486.375     284.725    -216.257
  H      489.163     279.083    -217.548
  H      490.625     282.228    -219.278
  H      491.863     280.941    -217.082
  H      487.477     286.416    -217.441
  H      491.264     278.717    -217.875
  H      488.861     286.011    -218.400
  H      492.212     279.665    -220.628
  H      491.754     277.248    -220.461
  H      490.166     277.534    -219.789
  P      493.550     277.363    -217.951
  C      495.384     276.826    -219.712
  O      494.083     276.553    -219.227
  O      492.072     276.787    -217.719
  O      494.382     277.264    -216.719
  H      492.077     276.136    -216.992
  H      495.642     276.081    -220.467
  H      496.118     276.776    -218.903
  H      495.410     277.819    -220.173
  H      488.016     275.165    -223.155
  H      488.307     276.701    -223.936
  H      488.229     276.608    -222.193

 3  4  5  6  7  8  9  10  11  12  23  26  30  31 0
 6-311+G(2d,p)
 ****
 33  35  36  37  38 0
 6-311+G(2d,p)
 ****
 1  2  13  14  15  16  17  18  19  20  21  22  24  25 0
 3-21G
 ****
 27  28  29  32  34  39  40  41  42  43  44  45  46  47  48  49 0
 3-21G
 ****


