%nproc=1
%NoSave
%Mem=1900MB
#P OB98/GEN NMR

erre ene a

0 1
  C     1147.795    -237.179    -214.231
  O     1146.770    -236.495    -214.927
  P     1147.044    -235.975    -216.432
  C     1144.839    -234.652    -216.533
  O     1146.257    -234.582    -216.610
  C     1144.293    -233.411    -215.831
  O     1144.844    -233.311    -214.487
  C     1144.652    -232.099    -216.504
  O     1143.840    -231.883    -217.652
  C     1144.425    -231.103    -215.365
  O     1143.031    -230.785    -215.265
  C     1144.887    -231.909    -214.157
  N     1147.571    -229.385    -210.607
  C     1146.233    -229.432    -210.864
  N     1145.603    -230.099    -211.864
  C     1146.494    -230.756    -212.642
  C     1147.859    -230.763    -212.506
  C     1148.421    -230.062    -211.426
  N     1149.759    -230.058    -211.104
  N     1148.431    -231.533    -213.519
  C     1147.420    -231.954    -214.245
  N     1146.223    -231.557    -213.710
  O     1146.813    -236.979    -217.508
  O     1148.585    -235.517    -216.395
  H     1142.944    -230.059    -214.601
  H     1149.080    -236.037    -217.042
  H     1145.610    -228.862    -210.195
  H     1147.491    -232.557    -215.140
  H     1144.214    -231.762    -213.295
  H     1144.985    -230.162    -215.509
  H     1145.712    -232.094    -216.776
  H     1143.210    -233.504    -215.741
  H     1144.569    -235.549    -215.955
  H     1150.018    -229.646    -210.226
  H     1150.353    -230.792    -211.500
  H     1144.419    -234.735    -217.545
  P     1144.521    -231.446    -219.020
  C     1142.510    -230.045    -219.852
  O     1143.876    -230.044    -219.437
  O     1144.516    -232.480    -220.118
  O     1146.017    -231.031    -218.615
  H     1146.625    -231.247    -219.351
  H     1142.459    -230.412    -220.874
  H     1142.116    -229.048    -219.781
  H     1141.928    -230.713    -219.176
  H     1147.445    -237.449    -213.257
  H     1148.650    -236.542    -214.139
  H     1148.065    -238.063    -214.771

 3  4  5  6  7  8  9  10  11  12  22  25  29  30  31  32 0
 6-311+G(2d,p)
 ****
 33  36  37 0
 6-311+G(2d,p)
 ****
 1  2  13  14  15  16  17  18  19  20  21  23  24  26 0
 3-21G
 ****
 27  28  34  35  38  39  40  41  42  43  44  45  46  47  48 0
 3-21G
 ****


