%nproc=1
%NoSave
%Mem=1900MB
#P OB98/GEN NMR

erre ene a

0 1
  C     -451.068      64.033     389.888
  O     -450.282      65.204     389.843
  H     -452.030      64.239     389.413
  H     -451.246      63.730     390.922
  H     -450.576      63.221     389.342
  P     -448.835      65.188     390.533
  C     -447.539      64.723     388.349
  O     -447.904      64.237     389.637
  C     -446.231      64.072     387.889
  O     -445.172      64.542     388.759
  C     -446.277      62.538     387.973
  O     -445.908      61.904     386.749
  C     -445.450      62.234     389.217
  O     -444.852      60.954     389.221
  C     -444.460      63.402     389.273
  N     -443.946      63.676     390.610
  C     -442.649      63.256     390.898
  O     -441.903      62.682     390.110
  N     -442.209      63.525     392.168
  C     -442.920      64.143     393.153
  O     -442.465      64.357     394.272
  C     -444.291      64.536     392.800
  C     -444.736      64.291     391.563
  O     -448.821      64.879     391.992
  O     -448.249      66.649     390.234
  H     -444.226      60.930     389.972
  H     -448.284      67.186     391.050
  H     -441.266      63.240     392.383
  H     -444.887      65.018     393.562
  H     -445.742      64.571     391.268
  H     -443.604      63.213     388.621
  H     -446.107      62.284     390.091
  H     -447.303      62.191     388.136
  H     -446.002      64.414     386.873
  H     -447.416      65.809     388.422
  H     -448.334      64.499     387.632
  P     -446.886      61.037     385.837
  C     -446.875      62.464     383.628
  O     -447.581      62.002     384.774
  O     -447.772      60.078     386.559
  O     -445.880      60.167     384.922
  H     -446.330      59.317     384.752
  H     -447.514      63.095     383.046
  H     -446.567      61.627     383.038
  H     -446.014      63.018     383.939

 6  7  8  9  10  11  12  13  14  15  16  26  31  32  33  34  35 0
 6-311+G(2d,p)
 ****
 36  37 0
 6-311+G(2d,p)
 ****
 1  2  3  4  5  17  18  19  20  21  22  23  24  25 0
 3-21G
 ****
 27  28  29  30  38  39  40  41  42  43  44  45 0
 3-21G
 ****


