%nproc=1
%NoSave
%Mem=1900MB
#P OB98/GEN NMR

erre ene a

0 1
  C       64.680     150.424     -45.667
  O       65.914     150.157     -46.295
  H       63.881     149.956     -46.248
  H       64.502     151.502     -45.635
  H       64.666     150.014     -44.653
  P       67.248     150.615     -45.529
  C       69.789     150.237     -45.904
  O       68.484     150.185     -46.461
  C       70.776     149.478     -46.792
  O       70.559     148.053     -46.621
  C       70.637     149.800     -48.281
  O       71.942     149.833     -48.866
  C       69.865     148.616     -48.835
  O       70.100     148.407     -50.227
  C       70.348     147.479     -47.925
  N       69.388     146.380     -47.885
  C       69.535     145.381     -48.851
  O       70.437     145.457     -49.688
  N       68.630     144.352     -48.886
  C       67.613     144.365     -48.082
  N       66.732     143.333     -48.185
  C       67.378     145.434     -47.092
  C       68.300     146.395     -47.043
  O       67.342     149.592     -44.303
  O       67.274     152.039     -45.086
  H       69.766     147.515     -50.465
  H       67.756     150.010     -43.525
  H       66.502     145.415     -46.461
  H       68.209     147.226     -46.353
  H       71.314     147.089     -48.275
  H       68.790     148.781     -48.696
  H       70.128     150.748     -48.472
  H       71.793     149.690     -46.440
  H       66.918     142.629     -48.889
  H       69.772     149.771     -44.914
  H       65.884     143.264     -47.643
  H       70.097     151.282     -45.799
  P       72.772     151.194     -48.697
  C       75.301     151.665     -49.056
  O       74.114     151.072     -49.565
  O       73.290     151.125     -47.184
  O       71.964     152.424     -48.948
  H       72.808     151.771     -46.637
  H       76.105     151.500     -49.743
  H       75.543     151.224     -48.111
  H       75.149     152.717     -48.931

 6  7  8  9  10  11  12  13  14  15  16  26  30  31  32  33  35 0
 6-311+G(2d,p)
 ****
 37  38 0
 6-311+G(2d,p)
 ****
 1  2  3  4  5  17  18  19  20  21  22  23  24  25 0
 3-21G
 ****
 27  28  29  34  36  39  40  41  42  43  44  45  46 0
 3-21G
 ****


