%nproc=1
%NoSave
%Mem=1900MB
#P OB98/GEN NMR

erre ene a

0 1
  C      295.087     -98.462    -474.356
  O      294.104     -99.450    -474.102
  P      292.583     -98.969    -473.939
  C      291.792    -101.425    -473.573
  O      291.816    -100.090    -473.088
  C      291.560    -102.396    -472.413
  O      292.674    -102.346    -471.489
  C      290.324    -102.072    -471.579
  O      289.138    -102.515    -472.221
  C      290.627    -102.800    -470.281
  O      290.266    -104.186    -470.371
  C      292.155    -102.637    -470.171
  N      292.543    -101.626    -469.197
  C      292.399    -101.983    -467.854
  O      291.948    -103.072    -467.498
  N      292.755    -101.030    -466.940
  C      293.171     -99.765    -467.224
  O      293.417     -98.926    -466.358
  C      293.274     -99.426    -468.654
  C      292.959    -100.362    -469.563
  O      291.971     -99.119    -475.410
  O      292.425     -97.581    -473.408
  H      290.556    -104.611    -469.539
  H      291.328     -98.401    -475.574
  H      292.678    -101.275    -465.966
  H      293.605     -98.428    -468.919
  H      293.013    -100.129    -470.617
  H      292.610    -103.592    -469.872
  H      290.072    -102.381    -469.433
  H      290.278    -100.988    -471.381
  H      291.498    -103.415    -472.812
  H      292.746    -101.652    -474.062
  H      290.995    -101.525    -474.316
  P      287.743    -102.141    -471.513
  C      286.687    -103.966    -473.056
  O      286.803    -103.413    -471.762
  O      287.199    -101.019    -472.514
  O      287.909    -101.698    -470.101
  H      287.475    -101.175    -473.432
  H      287.627    -103.908    -473.607
  H      285.907    -103.434    -473.608
  H      286.393    -105.019    -472.962
  H      296.047     -98.927    -474.440
  H      295.101     -97.758    -473.550
  H      294.855     -97.955    -475.269

 3  4  5  6  7  8  9  10  11  12  13  23  28  29  30  31  32 0
 6-311+G(2d,p)
 ****
 33  34 0
 6-311+G(2d,p)
 ****
 1  2  14  15  16  17  18  19  20  21  22  24  25  26 0
 3-21G
 ****
 27  35  36  37  38  39  40  41  42  43  44  45 0
 3-21G
 ****


