%nproc=1
%NoSave
%Mem=1900MB
#P OB98/GEN NMR

erre ene a

0 1
  C     -627.206    -496.304     467.458
  O     -625.788    -496.170     467.351
  P     -624.874    -497.410     467.774
  C     -622.865    -496.541     466.249
  O     -623.328    -497.068     467.487
  C     -621.360    -496.280     466.356
  O     -621.091    -495.108     467.158
  C     -620.581    -497.438     466.993
  O     -620.226    -498.429     466.033
  C     -619.396    -496.718     467.615
  O     -618.424    -496.421     466.592
  C     -620.063    -495.437     468.131
  N     -620.675    -495.458     469.485
  C     -620.269    -494.541     470.447
  O     -619.432    -493.665     470.270
  N     -620.905    -494.627     471.668
  C     -621.979    -495.421     471.968
  O     -622.554    -495.411     473.047
  C     -622.469    -496.271     470.856
  C     -621.785    -496.267     469.697
  O     -625.221    -498.526     466.694
  O     -625.102    -497.882     469.171
  H     -618.043    -497.268     466.313
  H     -625.656    -499.288     467.112
  H     -620.584    -494.029     472.398
  H     -623.329    -496.878     471.032
  H     -622.146    -496.883     468.874
  H     -619.342    -494.604     468.138
  H     -618.892    -497.353     468.331
  H     -621.176    -497.880     467.810
  H     -620.976    -496.091     465.347
  H     -623.396    -495.620     466.024
  H     -623.086    -497.262     465.448
  P     -621.002    -499.828     466.005
  C     -620.457    -501.124     463.858
  O     -620.059    -500.829     465.186
  O     -622.438    -499.776     465.574
  O     -620.845    -500.370     467.518
  H     -621.660    -500.144     468.045
  H     -619.663    -501.686     463.364
  H     -620.633    -500.196     463.297
  H     -621.368    -501.731     463.854
  H     -627.675    -495.396     467.140
  H     -627.470    -496.504     468.475
  H     -627.536    -497.112     466.838

 3  4  5  6  7  8  9  10  11  12  13  23  28  29  30  31  32 0
 6-311+G(2d,p)
 ****
 33  34 0
 6-311+G(2d,p)
 ****
 1  2  14  15  16  17  18  19  20  21  22  24  25  26  27 0
 3-21G
 ****
 35  36  37  38  39  40  41  42  43  44  45 0
 3-21G
 ****


