%nproc=1
%NoSave
%Mem=1900MB
#P OB98/GEN NMR

erre ene a

0 1
  C     -803.480     477.550    -343.600
  O     -802.700     476.353    -343.517
  P     -801.094     476.468    -343.543
  C     -800.338     475.128    -341.476
  O     -800.565     476.417    -342.025
  C     -801.402     474.785    -340.432
  O     -802.733     474.759    -341.015
  C     -801.214     473.403    -339.818
  O     -800.133     473.406    -338.892
  C     -802.583     473.150    -339.215
  O     -802.703     473.791    -337.922
  C     -803.518     473.832    -340.225
  N     -804.216     472.895    -341.091
  C     -805.337     472.250    -340.532
  O     -805.654     472.472    -339.361
  N     -806.041     471.368    -341.304
  C     -805.676     471.134    -342.522
  N     -806.411     470.248    -343.252
  C     -804.492     471.777    -343.150
  C     -803.806     472.625    -342.367
  O     -800.540     477.570    -344.374
  O     -800.650     475.027    -344.104
  H     -803.592     473.593    -337.595
  H     -799.821     475.139    -344.598
  H     -804.227     471.557    -344.179
  H     -802.927     473.129    -342.758
  H     -804.278     474.424    -339.704
  H     -802.766     472.083    -339.053
  H     -801.021     472.670    -340.618
  H     -801.368     475.554    -339.645
  H     -807.202     469.826    -342.785
  H     -799.339     475.106    -341.019
  H     -806.232     470.042    -344.221
  H     -800.324     474.392    -342.287
  P     -798.715     472.838    -339.403
  C     -796.748     474.337    -338.613
  O     -797.739     474.067    -339.612
  O     -799.039     472.349    -340.907
  O     -798.175     471.707    -338.591
  H     -798.505     471.577    -341.108
  H     -795.983     474.992    -339.047
  H     -796.277     473.402    -338.267
  H     -797.219     474.841    -337.772
  H     -804.520     477.301    -343.570
  H     -803.261     478.056    -344.517
  H     -803.242     478.189    -342.775

 3  4  5  6  7  8  9  10  11  12  13  23  27  28  29  30  32 0
 6-311+G(2d,p)
 ****
 34  35 0
 6-311+G(2d,p)
 ****
 1  2  14  15  16  17  18  19  20  21  22  24  25  26 0
 3-21G
 ****
 31  33  36  37  38  39  40  41  42  43  44  45  46 0
 3-21G
 ****


