%nproc=1
%NoSave
%Mem=1900MB
#P OB98/GEN NMR

erre ene a

0 1
  C      151.639     -22.591     175.891
  O      151.998     -21.252     175.614
  H      150.556     -22.694     175.786
  H      151.915     -22.850     176.916
  H      152.125     -23.277     175.191
  P      153.552     -20.873     175.499
  C      153.519     -21.037     172.924
  O      154.088     -21.523     174.133
  C      154.532     -20.165     172.186
  O      155.789     -20.861     172.050
  C      154.112     -19.786     170.770
  O      153.123     -18.772     170.785
  C      155.452     -19.366     170.179
  O      155.790     -18.031     170.574
  C      156.409     -20.395     170.828
  N      156.736     -21.519     169.949
  C      157.511     -21.225     168.832
  O      157.884     -20.081     168.553
  N      157.831     -22.287     168.026
  C      157.391     -23.571     168.187
  O      157.665     -24.479     167.404
  C      156.547     -23.816     169.364
  C      156.260     -22.796     170.176
  O      154.385     -21.170     176.703
  O      153.534     -19.306     175.165
  H      155.299     -17.430     169.982
  H      153.717     -18.795     175.977
  H      158.384     -22.092     167.206
  H      156.172     -24.825     169.517
  H      155.636     -22.960     171.048
  H      157.348     -19.907     171.121
  H      155.455     -19.385     169.088
  H      153.753     -20.673     170.231
  H      154.709     -19.261     172.791
  H      152.630     -20.441     173.166
  H      153.220     -21.891     172.305
  P      152.054     -18.653     169.602
  C      150.146     -19.602     171.029
  O      150.927     -19.774     169.853
  O      152.630     -18.644     168.223
  O      151.280     -17.286     169.915
  H      151.564     -16.592     169.287
  H      149.431     -20.395     171.102
  H      149.634     -18.664     170.983
  H      150.785     -19.618     171.887

 6  7  8  9  10  11  12  13  14  15  16  26  31  32  33  34  35 0
 6-311+G(2d,p)
 ****
 36  37 0
 6-311+G(2d,p)
 ****
 1  2  3  4  5  17  18  19  20  21  22  23  24  25 0
 3-21G
 ****
 27  28  29  30  38  39  40  41  42  43  44  45 0
 3-21G
 ****


