%nproc=1
%NoSave
%Mem=1900MB
#P OB98/GEN NMR

erre ene a

0 1
  C       -6.989     265.339     -31.750
  O       -5.972     264.477     -31.278
  H       -6.689     266.373     -31.564
  H       -7.925     265.144     -31.219
  H       -7.137     265.199     -32.826
  P       -6.213     262.902     -31.476
  C       -8.148     261.302     -30.792
  O       -7.441     262.509     -30.521
  C       -8.243     260.469     -29.518
  O       -6.923     260.040     -29.112
  C       -8.805     261.230     -28.323
  O      -10.221     261.343     -28.371
  C       -8.307     260.372     -27.166
  O       -9.169     259.252     -26.938
  C       -6.940     259.899     -27.668
  N       -3.165     259.751     -24.235
  C       -4.037     258.808     -24.660
  N       -5.004     258.924     -25.594
  C       -5.008     260.160     -26.122
  C       -4.181     261.223     -25.790
  C       -3.216     260.984     -24.797
  N       -2.345     261.946     -24.346
  N       -4.513     262.346     -26.522
  C       -5.520     261.970     -27.287
  N       -5.849     260.657     -27.083
  O       -4.942     262.249     -30.757
  O       -6.339     262.454     -32.896
  H       -9.992     259.614     -26.558
  H       -4.280     261.994     -31.428
  H       -3.950     257.838     -24.183
  H       -6.042     262.604     -27.995
  H       -6.760     258.841     -27.446
  H       -8.259     260.954     -26.245
  H       -8.341     262.223     -28.256
  H       -8.844     259.572     -29.727
  H       -7.611     260.730     -31.557
  H       -9.146     261.551     -31.168
  H       -1.729     261.723     -23.585
  H       -2.449     262.898     -24.676
  P      -10.876     262.701     -27.828
  C      -11.256     263.775     -25.480
  O      -10.821     262.650     -26.225
  O      -12.432     262.534     -28.161
  O      -10.308     263.946     -28.420
  H      -12.814     263.402     -28.400
  H      -11.152     263.572     -24.435
  H      -12.283     263.976     -25.704
  H      -10.661     264.626     -25.739

 6  7  8  9  10  11  12  13  14  15  25  28  32  33  34  35 0
 6-311+G(2d,p)
 ****
 36  37  40 0
 6-311+G(2d,p)
 ****
 1  2  3  4  5  16  17  18  19  20  21  22  23  24 0
 3-21G
 ****
 26  27  29  30  31  38  39 41  42  43  44  45  46  47  48 0
 3-21G
 ****


