%nproc=1
%NoSave
%Mem=1900MB
#P OB98/GEN NMR

erre ene a

0 1
  C     -569.522     584.674    -526.368
  O     -569.724     585.780    -525.487
  P     -568.937     587.132    -525.846
  C     -571.064     588.607    -526.034
  O     -569.931     588.065    -526.694
  C     -572.098     589.097    -527.054
  O     -572.574     588.043    -527.905
  C     -573.341     589.698    -526.408
  O     -573.074     591.028    -525.988
  C     -574.349     589.620    -527.544
  O     -574.217     590.747    -528.436
  C     -573.950     588.323    -528.260
  N     -576.710     584.533    -530.193
  C     -576.125     585.615    -530.824
  N     -576.275     585.681    -532.162
  N     -575.453     586.542    -530.199
  C     -575.382     586.345    -528.862
  C     -575.893     585.302    -528.125
  C     -576.641     584.283    -528.830
  O     -577.160     583.298    -528.320
  N     -575.568     585.414    -526.796
  C     -574.968     586.591    -526.715
  N     -574.772     587.164    -527.949
  O     -567.847     586.652    -526.920
  O     -568.299     587.781    -524.667
  H     -574.793     590.610    -529.209
  H     -566.958     586.690    -526.523
  H     -577.227     583.855    -530.721
  H     -574.634     587.051    -525.803
  H     -573.988     588.433    -529.348
  H     -575.376     589.634    -527.175
  H     -576.781     585.000    -532.709
  H     -573.671     589.077    -525.567
  H     -575.845     586.462    -532.645
  H     -571.606     589.854    -527.679
  H     -570.763     589.436    -525.389
  H     -571.496     587.839    -525.384
  P     -572.903     591.300    -524.416
  C     -570.359     591.664    -524.784
  O     -571.371     591.013    -524.045
  O     -573.701     590.075    -523.751
  O     -573.441     592.607    -523.952
  H     -574.244     590.407    -523.012
  H     -569.487     591.799    -524.141
  H     -570.691     592.636    -525.148
  H     -570.078     591.040    -525.634
  H     -570.095     583.837    -526.027
  H     -568.484     584.414    -526.382
  H     -569.836     584.942    -527.355

 3  4  5  6  7  8  9  10  11  12  23  26  30  31 0
 6-311+G(2d,p)
 ****
 33  35  36  37  38 0
 6-311+G(2d,p)
 ****
 1  2  13  14  15  16  17  18  19  20  21  22  24  25 0
 3-21G
 ****
 27  28  29  32  34  39  40  41  42  43  44  45  46  47  48  49 0
 3-21G
 ****


