%nproc=1
%NoSave
%Mem=1900MB
#P OB98/GEN NMR

erre ene a

0 1
  C      184.535      10.537     503.151
  O      183.980      10.756     504.430
  H      183.722      10.454     502.425
  H      185.102       9.601     503.151
  H      185.187      11.360     502.853
  P      184.939      11.268     505.605
  C      186.032      10.232     507.702
  O      185.118      10.044     506.632
  C      186.173       8.957     508.537
  O      184.936       8.698     509.248
  C      186.419       7.742     507.627
  O      187.170       6.725     508.284
  C      185.016       7.231     507.363
  O      184.985       5.864     506.957
  C      184.340       7.501     508.707
  N      179.752       5.745     510.051
  C      180.996       5.187     510.269
  N      181.026       3.994     510.910
  N      182.116       5.742     509.877
  C      181.932       6.896     509.188
  C      180.747       7.527     508.886
  C      179.521       6.923     509.362
  O      178.389       7.362     509.190
  N      180.961       8.669     508.150
  C      182.270       8.721     507.994
  N      182.905       7.670     508.619
  O      184.010      12.281     506.436
  O      186.214      11.924     505.169
  H      184.060       5.644     506.743
  H      184.560      12.927     506.916
  H      178.925       5.280     510.391
  H      182.802       9.490     507.456
  H      184.531       6.678     509.406
  H      184.584       7.823     506.545
  H      180.193       3.454     511.071
  H      186.927       8.019     506.703
  H      181.885       3.444     510.817
  H      186.953       9.077     509.293
  H      185.642      11.043     508.323
  H      187.005      10.549     507.317
  P      188.759       6.704     508.049
  C      190.350       6.220     506.018
  O      189.025       6.356     506.511
  O      189.244       5.401     508.839
  O      189.448       7.944     508.531
  H      189.681       5.650     509.665
  H      190.320       5.988     504.974
  H      190.847       5.432     506.544
  H      190.881       7.137     506.164

 6  7  8  9  10  11  12  13  14  15  26  29  33  34 0
 6-311+G(2d,p)
 ****
 36  38  39  40  41 0
 6-311+G(2d,p)
 ****
 1  2  3  4  5  16  17  18  19  20  21  22  23  24  25 0
 3-21G
 ****
 27  28  30  31  32  35  37  42  43  44  45  46  47 0
 3-21G
 ****
 48  49 0
 3-21G
 ****


