%nproc=1
%NoSave
%Mem=1900MB
#P OB98/GEN NMR

erre ene a

0 1
  C      289.820    -340.106     -21.447
  O      290.179    -340.255     -22.808
  H      290.000    -341.039     -20.906
  H      290.436    -339.318     -21.007
  H      288.766    -339.820     -21.361
  P      289.360    -341.350     -23.648
  C      286.846    -341.819     -24.088
  O      287.806    -341.070     -23.358
  C      285.881    -342.508     -23.129
  O      286.568    -343.530     -22.380
  C      285.247    -341.590     -22.088
  O      284.161    -340.852     -22.626
  C      284.774    -342.608     -21.064
  O      283.545    -343.214     -21.510
  C      285.910    -343.641     -21.090
  N      288.071    -345.697     -16.934
  C      287.165    -346.177     -17.809
  N      286.652    -345.581     -18.903
  C      287.188    -344.360     -19.071
  C      288.137    -343.739     -18.271
  C      288.583    -344.458     -17.154
  N      289.462    -343.926     -16.220
  N      288.427    -342.476     -18.752
  C      287.654    -342.332     -19.804
  N      286.893    -343.445     -20.040
  O      289.659    -342.706     -22.844
  O      289.743    -341.465     -25.084
  H      283.607    -343.292     -22.480
  H      290.388    -343.186     -23.285
  H      286.799    -347.180     -17.601
  H      287.607    -341.445     -20.422
  H      285.536    -344.668     -21.008
  H      284.581    -342.168     -20.079
  H      285.992    -340.937     -21.624
  H      285.106    -343.006     -23.731
  H      287.355    -342.575     -24.695
  H      289.340    -344.303     -15.285
  H      289.595    -342.925     -16.296
  H      286.301    -341.137     -24.751
  P      283.754    -339.483     -21.892
  C      285.029    -337.304     -21.326
  O      285.124    -338.700     -21.590
  O      283.275    -339.986     -20.448
  O      282.686    -338.690     -22.568
  H      282.365    -339.676     -20.277
  H      286.006    -336.908     -21.143
  H      284.413    -337.145     -20.466
  H      284.597    -336.810     -22.171

 6  7  8  9  10  11  12  13  14  15  25  28  32  33  34  35 0
 6-311+G(2d,p)
 ****
 36  39  40 0
 6-311+G(2d,p)
 ****
 1  2  3  4  5  16  17  18  19  20  21  22  23  24 0
 3-21G
 ****
 26  27  29  30  31  37  38  41  42  43  44  45  46  47  48 0
 3-21G
 ****


