%nproc=1
%NoSave
%Mem=1900MB
#P OB98/GEN NMR

erre ene a

0 1
  C     -474.268     284.969    -738.698
  O     -473.113     284.685    -739.456
  P     -472.215     285.866    -740.051
  C     -473.876     286.020    -742.016
  O     -472.510     285.883    -741.631
  C     -473.992     286.332    -743.509
  O     -473.399     287.616    -743.804
  C     -473.281     285.331    -744.415
  O     -474.038     284.148    -744.529
  C     -473.145     286.139    -745.698
  O     -474.355     286.088    -746.469
  C     -472.897     287.564    -745.157
  N     -471.498     287.957    -745.228
  C     -471.125     288.703    -746.355
  O     -471.952     288.968    -747.222
  N     -469.812     289.082    -746.486
  C     -468.943     288.728    -745.591
  N     -467.655     289.132    -745.785
  C     -469.287     287.914    -744.411
  C     -470.570     287.561    -744.298
  O     -470.768     285.820    -739.676
  O     -472.960     287.188    -739.536
  H     -474.647     285.151    -746.454
  H     -472.803     287.336    -738.572
  H     -468.527     287.638    -743.695
  H     -470.912     286.963    -743.460
  H     -473.482     288.297    -745.732
  H     -472.337     285.766    -746.340
  H     -472.280     285.116    -744.008
  H     -475.060     286.384    -743.769
  H     -467.458     289.659    -746.618
  H     -474.314     286.843    -741.442
  H     -466.898     288.889    -745.171
  H     -474.419     285.101    -741.768
  P     -473.320     282.722    -744.410
  C     -471.965     282.835    -746.595
  O     -473.020     282.191    -745.897
  O     -473.988     281.735    -743.512
  O     -471.855     283.086    -743.865
  H     -471.615     282.459    -743.160
  H     -471.654     282.191    -747.421
  H     -471.118     283.018    -745.937
  H     -472.336     283.784    -747.008
  H     -474.728     284.053    -738.392
  H     -474.956     285.532    -739.294
  H     -473.996     285.538    -737.833

 3  4  5  6  7  8  9  10  11  12  13  23  27  28  29  30  32 0
 6-311+G(2d,p)
 ****
 34  35 0
 6-311+G(2d,p)
 ****
 1  2  14  15  16  17  18  19  20  21  22  24  25  26 0
 3-21G
 ****
 31  33  36  37  38  39  40  41  42  43  44  45  46 0
 3-21G
 ****


