%nproc=1
%NoSave
%Mem=1900MB
#P OB98/GEN NMR

erre ene a

0 1
  C      -12.198    -492.717      76.818
  O      -10.941    -492.070      76.783
  H      -12.633    -492.585      77.811
  H      -12.074    -493.786      76.624
  H      -12.871    -492.278      76.076
  P      -10.144    -492.134      75.393
  C      -11.020    -491.605      72.995
  O      -10.974    -491.227      74.362
  C      -11.225    -490.372      72.107
  O      -12.514    -489.770      72.434
  C      -10.163    -489.278      72.307
  O      -10.030    -488.559      71.067
  C      -10.828    -488.387      73.343
  O      -10.173    -487.143      73.438
  C      -12.256    -488.398      72.806
  N      -14.499    -484.308      74.902
  C      -13.590    -484.425      73.910
  N      -13.047    -485.549      73.398
  C      -13.554    -486.639      73.999
  C      -14.494    -486.678      75.019
  C      -14.973    -485.437      75.479
  N      -15.893    -485.314      76.495
  N      -14.764    -487.983      75.383
  C      -14.001    -488.719      74.598
  N      -13.248    -487.948      73.753
  O      -10.409    -493.628      74.886
  O       -8.687    -491.822      75.473
  H      -10.595    -486.578      74.122
  H       -9.670    -494.206      75.150
  H      -13.246    -483.491      73.473
  H      -13.948    -489.799      74.604
  H      -12.357    -487.785      71.904
  H      -10.782    -488.844      74.338
  H       -9.188    -489.668      72.607
  H      -11.280    -490.691      71.059
  H      -11.850    -492.305      72.857
  H      -10.084    -492.100      72.720
  H      -16.174    -484.389      76.775
  H      -16.241    -486.147      76.945
  P       -8.987    -489.086      69.966
  C       -8.684    -491.285      68.576
  O       -9.549    -490.451      69.337
  O       -7.778    -489.615      70.878
  O       -8.503    -488.064      68.989
  H       -6.941    -489.548      70.379
  H       -9.224    -492.145      68.238
  H       -7.862    -491.597      69.186
  H       -8.315    -490.741      67.732

 6  7  8  9  10  11  12  13  14  15  25  28  32  33  34  35 0
 6-311+G(2d,p)
 ****
 36  37  40 0
 6-311+G(2d,p)
 ****
 1  2  3  4  5  16  17  18  19  20  21  22  23  24 0
 3-21G
 ****
 26  27  29  30  31  38  39 41  42  43  44  45  46  47  48 0
 3-21G
 ****


