%nproc=1
%NoSave
%Mem=1900MB
#P OB98/GEN NMR

erre ene a

0 1
  C     -889.190     367.259    -898.912
  O     -890.160     368.081    -899.532
  H     -888.780     366.581    -899.652
  H     -889.670     366.672    -898.112
  H     -888.380     367.862    -898.492
  P     -890.690     369.379    -898.752
  C     -892.900     368.159    -898.232
  O     -891.810     368.886    -897.712
  C     -893.910     367.798    -897.122
  O     -894.040     368.933    -896.222
  C     -895.300     367.504    -897.682
  O     -896.020     366.586    -896.872
  C     -895.970     368.860    -897.642
  O     -897.400     368.780    -897.622
  C     -895.380     369.450    -896.362
  N     -897.900     373.802    -897.172
  C     -898.280     372.513    -897.492
  N     -899.480     372.357    -898.092
  N     -897.530     371.469    -897.252
  C     -896.340     371.778    -896.712
  C     -895.830     373.022    -896.382
  C     -896.690     374.167    -896.612
  O     -896.410     375.334    -896.362
  N     -894.550     372.951    -895.862
  C     -894.290     371.654    -895.882
  N     -895.340     370.904    -896.362
  O     -891.570     370.151    -899.862
  O     -889.630     370.275    -898.182
  H     -897.760     369.631    -897.362
  H     -891.640     371.093    -899.632
  H     -898.530     374.565    -897.362
  H     -893.340     371.209    -895.542
  H     -895.960     369.137    -895.482
  H     -895.690     369.404    -898.542
  H     -900.000     373.164    -898.472
  H     -895.260     367.124    -898.702
  H     -899.620     371.473    -898.602
  H     -893.510     366.959    -896.522
  H     -892.510     367.271    -898.712
  H     -893.410     368.739    -899.022
  P     -896.210     365.076    -897.382
  C     -898.220     365.727    -898.992
  O     -896.990     365.057    -898.772
  O     -897.270     364.443    -896.342
  O     -894.930     364.282    -897.422
  H     -896.850     363.743    -895.832
  H     -898.540     365.564    -900.000
  H     -898.090     366.776    -898.825
  H     -898.959     365.347    -898.318

 6  7  8  9  10  11  12  13  14  15  26  29  33  34 0
 6-311+G(2d,p)
 ****
 36  38  39  40  41 0
 6-311+G(2d,p)
 ****
 1  2  3  4  5  16  17  18  19  20  21  22  23  24  25 0
 3-21G
 ****
 27  28  30  31  32  35  37  42  43  44  45  46  47 0
 3-21G
 ****
 48  49 0
 3-21G
 ****


