%nproc=1
%NoSave
%Mem=1900MB
#P OB98/GEN NMR

erre ene a

0 1
  C       30.174    -152.489     145.853
  O       30.870    -153.380     144.977
  P       32.150    -154.144     145.568
  C       31.191    -156.357     146.549
  O       31.680    -155.045     146.805
  C       31.700    -157.328     147.616
  O       33.110    -157.568     147.470
  C       31.529    -156.803     149.032
  O       30.189    -156.947     149.459
  C       32.520    -157.661     149.809
  O       31.909    -158.867     150.297
  C       33.605    -157.983     148.756
  N       34.882    -157.360     149.058
  C       35.860    -158.200     149.601
  O       35.608    -159.387     149.817
  N       37.086    -157.667     149.907
  C       37.305    -156.403     149.713
  N       38.538    -155.933     150.040
  C       36.292    -155.478     149.169
  C       35.113    -156.017     148.867
  O       32.989    -152.972     146.261
  O       32.957    -154.860     144.533
  H       31.135    -158.575     150.823
  H       33.945    -153.156     146.198
  H       36.520    -154.432     149.032
  H       34.307    -155.413     148.463
  H       33.766    -159.067     148.694
  H       32.908    -157.130     150.683
  H       31.835    -155.750     149.079
  H       31.164    -158.281     147.503
  H       39.209    -156.594     150.412
  H       31.508    -156.691     145.560
  H       38.815    -154.967     149.938
  H       30.096    -156.328     146.533
  P       29.468    -155.669     150.097
  C       27.815    -155.773     148.137
  O       28.710    -154.963     148.872
  O       30.701    -154.674     150.337
  O       28.672    -155.881     151.340
  H       30.405    -153.880     150.818
  H       27.221    -155.131     147.480
  H       27.140    -156.310     148.807
  H       28.375    -156.483     147.521
  H       29.348    -152.051     145.333
  H       30.840    -151.718     146.180
  H       29.814    -153.032     146.702

 3  4  5  6  7  8  9  10  11  12  13  21  23  27  28  29  30  32 0
 6-311+G(2d,p)
 ****
 34  35 0
 6-311+G(2d,p)
 ****
 1  2  14  15  16  17  18  19  20  22  24  25  26 0
 3-21G
 ****
 31  33  36  37  38  39  40  41  42  43  44  45  46 0
 3-21G
 ****


